{
    78 6A 02 F7 42 01 59 03
    C6 C6 FD 85 25 52 D2 72
    91 2F 47 40 E1 58 47 61
    8A 86 E2 17 F7 1F 54 19
    D2 5E 10 31 AF EE 58 53
    13 89 64 44 93 4E B0 4B
    90 3A 68 5B 14 48 B7 55
    D5 6F 70 1A FE 9B E2 CE
}
{
    2F A3 F6 86 DF 87 69 95
    16 7E 7C 2E 5D 74 C4 C7
    B6 E4 8F 80 68 FE 0E 44
    20 83 44 D4 80 F7 90 4C
    36 96 3E 44 11 5F E3 EB
    2A 3A C8 69 4C 28 BC B4
    F5 A0 F3 27 6F 2E 79 48
    7D 82 19 05 7A 50 6E 4B
}
{
    1C 08 79 8D C6 41 AB A9
    DE E4 35 E2 25 19 A4 72
    9A 09 B2 BF E0 FF 00 EF
    2D CD 8E D6 F8 A0 7D 15
    EA F4 AE E5 2B BF 18 AB
    56 08 A6 19 0F 70 B9 04
    86 C8 A7 D4 87 37 10 B1
    11 5D 3D EB BB 43 27 B5
}
{
    40 A3 74 72 73 02 D9 A4
    76 9C 17 B5 F4 09 FF 32
    F5 8A A2 4F F1 22 D7 60
    3E 4F DA 15 09 E9 19 D4
    10 7A 52 C5 75 70 A6 D9
    4E 50 96 7A EA 57 3B 11
    F8 6F 47 3F 53 75 65 C6
    6F 70 39 83 0A 85 D1 86
}
{
    77 DD F4 B1 44 25 EB 3D
    05 3C 1E 84 E3 46 9D 92
    C4 CD 91 0E D2 0F 92 03
    5E 0C 99 D8 A7 A8 6C EC
    AF 69 F9 66 3C 20 A7 AA
    23 0B C8 2F 60 D2 2F B4
    A0 0B 09 D3 EB 8F C6 5E
    F5 47 FE 63 C8 D3 DD CE
}
{
    CB AA 0B A7 D4 82 B1 F3
    01 10 9A E4 10 51 99 1A
    32 89 BC 11 98 00 5A F2
    26 C5 E4 F1 03 B6 65 79
    F4 61 36 10 44 C8 BA 34
    39 FF 12 C5 15 FB 29 C5
    21 61 B7 EB 9C 28 37 B7
    6A 5D C3 3F 7C B2 E2 E8
}
{
    F9 5D 45 CF 69 AF 5C 20
    23 BD B5 05 82 1E 62 E8
    5D 7C AE DF 7B ED A1 2C
    02 48 77 5B 0C 88 20 5E
    EB 35 AF 3A 90 81 6F 66
    08 CE 7D D4 4E C2 8D B1
    14 06 14 E1 DD EB F3 AA
    9C D1 84 3E 0F AD 2C 36
}
{
    8F 94 5B A7 00 F2 53 0E
    5C 2A 7D F7 D5 DC E0 F8
    3F 9E FC 78 C0 73 FE 71
    AE 1F 88 20 4A 4F D1 CF
    70 A0 73 F5 D1 F9 42 ED
    62 3A A1 6E 90 A8 71 24
    6C 90 C4 5B 62 1B 34 01
    A5 DD BD 9D F6 26 41 65
}
{
    E9 98 E0 DC 03 EC 30 EB
    99 BB 6B FA AF 66 18 AC
    C6 20 32 0D 72 20 B3 AF
    2B 23 D1 12 D8 E9 CB 12
    62 F3 C0 D6 0D 18 3B 1E
    E7 F0 96 D1 2D AE 42 C9
    58 41 86 00 21 4D 04 F5
    ED 6F 5E 71 8B E3 55 66
}
{
    6A 9A 09 0C 61 B3 41 0A
    ED E7 EC 91 38 14 6C EB
    2C 69 66 2F 46 0C 3D A5
    3C 65 15 C1 EB 31 F4 1C
    A3 D2 80 E5 67 88 2F 95
    CF 66 4A 94 14 7D 78 F4
    2C FC 71 4A 40 D2 2E F1
    94 70 E0 53 49 35 08 A2
}
{
    29 10 25 11 D7 49 DB 3C
    C9 B4 E3 35 FA 1F 5E 8F
    AC A8 42 1D 55 8F 6A 3F
    33 21 D5 0D 04 4A 24 8B
    A5 95 CF C3 EF D3 D2 AD
    C9 73 34 DA 73 24 13 F5
    CB F4 75 1C 36 2B A1 D5
    38 62 AC 1E 8D AB EE E8
}
{
    C9 7A 47 79 D4 7E 6F 77
    72 9B 59 17 D0 13 8A BB
    35 98 0A B6 41 BD 73 A8
    85 9E B1 AC 98 C0 53 62
    ED 7D 60 8F 2E 95 87 D6
    BA 9E 27 1D 34 31 25 D4
    0D 93 3A 8E D0 4E C1 FE
    75 EC 40 7C 7A 53 C3 4E
}
{
    10 F0 DC 91 B9 F8 45 FB
    95 FA D6 86 0E 6C E1 AD
    FA 00 2C 7F C3 27 11 6D
    44 D0 47 CD 7D 58 70 D7
    72 BB 12 B5 FA C0 0E 02
    B0 8A C2 A0 17 4D 04 46
    C3 6A B3 5F 14 CA 31 89
    4C D6 1C 78 C8 49 B4 8A
}
{
    DE A9 10 1C AC 62 B8 F6
    A3 C6 50 F9 0E EA 5B FA
    E2 65 3A 4E AF D6 3A 6D
    1F 0F 13 2D B9 E4 F2 B1
    B6 62 43 2E C8 5B 17 BC
    AC 41 E7 75 63 78 81 F6
    AA B3 8D D6 6D CB D0 80
    F0 99 0A 7A 6E 98 54 FE
}
{
    44 1F FA A0 8C D7 9D FF
    4A FC 9B 9E 5B 56 20 EE
    C0 86 73 0C 25 F6 61 B1
    D6 FB FB D1 CE C3 14 8D
    D7 22 58 C6 56 41 F2 FC
    A5 EB 15 5F AD BC AB B1
    3C 6E 21 DC 11 FA F7 2C
    2A 28 1B 7D 56 14 5F 19
}
{
    44 4B 24 0F E3 ED 86 D0
    E2 EF 4C E7 D8 51 ED DE
    22 15 55 82 AA 09 14 79
    7B 72 6C D0 58 B6 F4 59
    32 E0 E1 29 51 68 76 52
    7B 1D D8 8F C6 6D 71 19
    F4 AB 3B ED 93 A6 1A 0E
    2D 2D 2A EA C3 36 D9 58
}
{
    BF BA BB EF 45 55 4C CF
    A0 DC 83 75 2A 19 CC 35
    D5 92 09 56 B3 01 D5 58
    D7 72 28 2B C8 67 00 91
    68 E9 E9 86 06 BB 5B A7
    3A 38 5D E5 74 92 28 C9
    25 A8 50 19 B7 1F 72 FE
    29 B3 CD 37 CA 52 EF E6
}
{
    9C 4D 0C 3E 1C DB BF 48
    5B EC 86 F4 1C EC 7C 98
    37 3F 0E 09 F3 92 84 9A
    AA 22 9E BF BF 39 7B 22
    08 55 29 CB 7E F3 9F 9C
    7C 22 22 A5 14 18 2B 1E
    FF AA 17 8C C3 68 7B 1B
    2B 6C BC B6 FD EB 96 F8
}
{
    47 71 76 B3 BF CB AD D7
    65 7C 23 C2 46 25 E4 D0
    D6 74 D1 86 8F 00 60 06
    39 8A F9 7A A4 18 77 C8
    E7 0D 3D 14 C3 BB C9 BB
    CD CE A8 01 BD 0E 15 99
    AF 1F 3E EC 67 40 51 70
    F4 E2 6C 96 4A 57 A8 B7
}
{
    A7 8C 49 0E DA 31 73 BB
    3F 10 DE E5 2F 11 0F B1
    C0 8E 03 02 23 0B 85 DD
    D7 C1 12 57 D9 2D E1 48
    78 5E F0 0C 03 9C 0B B8
    EB 98 08 A3 5B 2D 8C 08
    0F 57 28 59 71 4C 9D 40
    69 C5 BC AF 09 0E 89 8E
}
{
    58 D0 23 39 7B EB 5B 41
    45 CB 22 55 B0 7D 74 29
    0B 36 D9 FD 1E 59 4A FB
    D8 EE A4 7C 20 5B 2E FB
    FE 6F 46 19 0F AF 95 AF
    50 4A B0 72 E3 6F 6C 85
    D7 67 A3 21 BF D7 F2 26
    87 A4 AB BF 49 4A 68 9C
}
{
    40 01 EC 74 D5 A4 6F D2
    9C 2C 3C DB E5 D1 B9 F2
    0E 51 A9 41 BE 98 D2 A4
    E1 E2 FB F8 66 A6 72 12
    1D B6 F8 1A 51 4C FD 10
    E7 35 8D 57 1B DB A4 8E
    4C E7 08 B9 D1 24 89 4B
    C0 B5 ED 55 49 35 F7 3A
}
{
    CC D1 B2 2D AB 65 11 22
    5D 24 01 EA 2D 86 25 D2
    06 A1 24 73 CC 73 2B 61
    5E 56 40 CE FF F0 A4 AD
    F9 71 B0 E8 27 A6 19 E0
    A8 0F 5D B9 CC D0 96 23
    29 01 0D 07 E3 4A 20 64
    E7 31 C5 20 81 7B 21 83
}
{
    B4 A0 A9 E3 57 4E DB 9E
    1E 72 AA 31 E3 9C C5 F3
    0D BF 94 3F 8C AB C4 08
    44 96 54 A3 91 31 E6 6D
    71 8A 18 81 91 43 E3 EA
    96 B4 A1 89 59 88 A1 C0
    05 6C F2 B6 E0 4F 9A C1
    9D 65 73 83 C2 91 0C 44
}
{
    44 7B EC AB 16 63 06 08
    D3 9F 4F 05 8B 16 F7 AF
    95 B8 5A 76 AA 0F A7 CE
    A2 B8 07 55 FB 76 E9 C8
    04 F2 CA 78 F0 26 43 C9
    15 FB F2 FC E5 E1 9D E8
    60 00 DE 03 B1 88 61 81
    5A 83 12 60 71 F8 A3 7B
}
{
    54 E6 DA B9 97 73 80 A5
    66 58 22 DB 93 37 4E DA
    52 8D 9B EB 62 6F 9B 94
    02 70 71 CB 26 67 5E 11
    2B 4A 7F EC 94 1E E6 0A
    81 E4 D2 EA 3F F7 BC 52
    CF C4 5D FB FE 73 5A 1C
    64 6B 2C F6 D6 A4 9B 62
}
{
    3E A6 26 25 94 9E 36 46
    70 4D 7E 3C 90 6F 82 F6
    C0 28 F5 40 F5 F7 2A 79
    4B 0C 57 BF 97 B7 64 9B
    FE B9 0B 01 D3 CA 3E 82
    9D E2 1B 38 26 E6 F8 70
    14 D3 C7 73 50 CB 5A 15
    FF 5D 46 8A 81 BE C1 60
}
{
    21 3C FE 14 5C 54 A3 36
    91 56 99 80 E5 93 8C 88
    83 A4 6D 84 D1 49 C8 FF
    1A 67 CD 28 7B 4D 49 C6
    DA 69 D3 A0 35 44 3D B0
    85 98 3D 0E FE 63 70 6B
    D5 B6 F1 5A 7D A4 59 E8
    D5 0A 19 09 3D B5 5E 80
}
{
    57 16 C4 A3 8F 38 DB 10
    4E 49 4A 0A 27 CB E8 9A
    26 A6 BB 6F 49 9E C0 1C
    8C 01 AA 7C B8 84 97 E7
    51 48 CD 6E EE 12 A7 16
    8B 6F 78 AB 74 E4 BE 74
    92 51 A1 A7 4C 38 C8 6D
    61 29 17 7E 28 89 E0 B6
}
{
    03 04 60 A9 8B DF 9F F1
    7C D9 64 04 F2 8F C3 04
    F2 B7 C0 4E AA DE 53 67
    7F D2 8F 78 8C A2 21 86
    B8 BC 80 DD 21 D1 7F 85
    49 C7 11 AF F0 E5 14 E1
    9D 4E 15 F5 99 02 52 A0
    3E 08 2F 28 DC 20 52 F6
}
{
    19 E7 F1 CC EE 88 A1 06
    72 33 3E 39 0C F2 20 13
    A8 C7 34 C6 CB 9E AB 41
    F1 7C 3C 80 32 A2 E4 AC
    A0 56 9E A3 6F 08 60 C7
    A1 AF 28 FA 47 68 40 D6
    60 11 16 88 59 33 4A 9E
    4E F9 CC 2E 61 A0 E2 9E
}
{
    29 F8 B8 C7 8C 80 F2 FC
    B4 BD F7 82 5E D9 0A 70
    D6 25 FF 78 5D 26 26 77
    E2 50 C0 4F 37 20 C8 88
    D0 3F 80 45 E4 ED F3 F5
    28 5B D3 9D 92 8A 10 A7
    D0 A5 DF 00 B8 48 4A C2
    86 81 42 A1 E8 BE A3 51
}
{
    5C 52 92 0A 72 63 E3 9D
    57 92 0C A0 CB 75 2A C6
    D7 9A 04 FE F8 A7 A2 16
    A1 EC B7 11 5C E0 6D 89
    FD 7D 73 5B D6 F4 27 25
    55 DB A2 2C 2D 1C 96 E6
    35 23 22 C6 2C 56 30 FD
    E0 F4 77 7A 76 C3 DE 2C
}
{
    83 B0 98 F2 62 25 1B F6
    60 06 4A 9D 35 11 CE 76
    87 A0 9E 6D FB B8 78 29
    9C 30 E9 3D FB 43 A9 31
    4D B9 A6 00 33 7D B2 6E
    BE ED AF 22 56 A9 6D AB
    E9 B2 9E 75 73 AD 11 C3
    52 3D 87 4D DE 5B E7 ED
}
{
    94 47 D9 8A A5 C9 33 13
    52 F4 3D 3E 56 D0 A9 A9
    F9 58 18 65 99 8E 28 85
    CC 56 DD 0A 0B D5 A7 B5
    05 95 BD 10 F7 52 9B CD
    31 F3 7D C1 6A 14 65 D5
    94 07 96 67 DA 2A 3F CB
    70 40 14 98 83 7C ED EB
}
{
    86 77 32 F2 FE EB 23 89
    30 97 56 1A C7 10 A4 BF
    F4 53 BE 9C FB ED BA 8B
    A3 24 F9 D3 12 A8 2D 73
    2E 1B 83 B8 29 FD CD 17
    7B 88 2C A0 C1 BF 54 4B
    22 3B E5 29 92 4A 24 6A
    63 CF 05 9B FD C5 0A 1B
}
{
    F1 5A B2 6D 4C DF CF 56
    E1 96 BB 6B A1 70 A8 FC
    CC 41 4D E9 28 5A FD 98
    A3 D3 CF 2F B8 8F CB C0
    F1 98 32 AC 43 3A 5B 2C
    C2 39 2A 4C E3 43 32 98
    7D 8D 2C 2B EF 6C 34 66
    13 8D B0 C6 E4 2F A4 7B
}
{
    28 13 51 6D 68 ED 4A 08
    B3 9D 64 8A A6 AA CD 81
    E9 D6 55 EC D5 F0 C1 35
    56 C6 0F DF 0D 33 3E A3
    84 64 B3 6C 02 BA CC D7
    46 E9 57 5E 96 C6 30 14
    F0 74 AE 34 A0 A2 5B 32
    0F 0F BE DD 6A CF 76 65
}
{
    D3 25 9A FC A8 A4 89 62
    FA 89 2E 14 5A CF 54 7F
    26 92 3A E8 D4 92 4C 8A
    53 15 81 52 6B 04 B4 4C
    7A F8 3C 64 3E F5 A0 BC
    28 2D 36 F3 FB 04 C8 4E
    28 B3 51 F4 0C 74 B6 9D
    C7 84 0B C7 17 B6 F1 5F
}
{
    F1 4B 06 1A E3 59 FA 31
    B9 89 E3 03 32 BF E8 DE
    8C C8 CD B5 68 E1 4B E2
    14 A2 22 3B 84 CA AB 74
    19 54 9E CF CC 96 CE 2A
    CE C1 19 48 5D 87 D1 57
    D3 A8 73 4F C4 26 59 7D
    64 F3 65 70 CE AF 22 4D
}
{
    55 E7 0B 01 D1 FB F8 B2
    3B 57 FB 62 E2 6C 2C E5
    4F 13 F8 FA 24 64 E6 EB
    98 D1 6A 61 17 02 6D 8B
    90 81 90 12 49 6D 40 71
    EB E2 E5 95 57 EC E3 51
    9A 7A A4 58 02 F9 61 53
    74 87 73 32 B7 34 90 B3
}
{
    25 26 1E B2 96 97 1D 6E
    4A 71 B2 92 8E 64 83 9C
    67 D4 22 87 2B F9 F3 C3
    19 93 61 52 22 DE 9F 8F
    0B 2C 4B E8 54 85 59 B4
    B3 54 E7 36 41 6E 32 18
    D4 E8 A1 E2 19 A4 A6 D4
    3E 1A 9A 52 1D 0E 75 FC
}
{
    08 30 7F 34 7C 41 29 4E
    34 BB 54 CB 42 B1 52 2D
    22 F8 24 F7 B6 E5 DB 50
    FD A0 96 79 8E 18 1A 8F
    02 6F A2 7B 4A E4 5D 52
    A6 2C AF 9D 51 98 E2 4A
    49 13 C6 67 17 75 B2 D7
    23 C1 23 9B FB F0 16 D7
}
{
    1E 5C 62 E7 E9 BF A1 B1
    18 74 7A 2D E0 8B 3C A1
    01 12 AF 96 A4 6E 4B 22
    C3 FC 06 F9 BF EE 4E B5
    C4 9E 05 7A 4A 48 86 23
    43 24 57 25 76 BB 9B 5E
    CF DE 0D 99 B0 DE 4F 98
    EC 16 E4 D1 B8 5F A9 47
}
{
    C7 4A 77 39 5F B8 BC 12
    64 47 45 48 38 E5 61 E9
    62 85 3D C7 EB 49 A1 E3
    CB 67 C3 D0 85 1F 3E 39
    51 7B E8 C3 50 AC 91 09
    03 D4 9C D2 BF DF 54 5C
    99 31 6D 03 46 17 0B 73
    9F 0A DD 5D 53 3C 2C FC
}
{
    0D D5 7B 42 3C C0 1E B2
    86 13 91 EB 88 6A 0D 17
    07 9B 93 3F C7 6E B3 FC
    08 A1 9F 8A 74 95 2C B6
    8F 6B CD C6 44 F7 73 70
    96 6E 4D 13 E8 05 60 BC
    F0 82 EF 04 79 D4 8F BB
    AB 4D F0 3B 53 A4 E1 78
}
{
    4D 8D C3 92 3E DC CD FC
    E7 00 72 39 8B 8A 3D A5
    C3 1F CB 3E E3 B6 45 C8
    5F 71 7C BA EB 4B 67 3A
    19 39 44 25 A5 85 BF B4
    64 D9 2F 15 97 D0 B7 54
    D1 63 F9 7C ED 34 3B 25
    DB 5A 70 EF 48 EB B3 4F
}
{
    F0 A5 05 53 E4 DF B0 C4
    E3 E3 D3 BA 82 03 48 57
    E3 B1 E5 09 18 F5 B8 A7
    D6 98 E1 0D 24 2B 0F B5
    44 AF 6C 92 D0 C3 AA F9
    93 22 20 41 61 17 B4 E7
    8E CB 8A 8F 43 0E 13 B8
    2A 59 15 29 0A 58 19 C5
}
{
    B1 55 43 F3 F7 36 08 66
    27 CC 53 65 E7 E8 98 8C
    2E F1 55 C0 FD 4F 42 89
    61 B0 0D 15 26 F0 4D 6D
    6A 65 8B 4B 8E D3 2C 5D
    86 21 E7 F4 F8 E8 A9 33
    D9 EC C9 DD 1B 83 33 CB
    E2 8C FC 37 D9 71 9E 1C
}
{
    7B 4F A1 58 E4 15 FE F0
    23 24 72 64 CB BE 15 D1
    6D 91 A4 44 24 A8 DB 70
    7E B1 E2 03 3C 30 E9 E1
    E7 C8 C0 86 45 95 D2 CB
    8C 58 0E B4 7E 9D 16 AB
    BD 7E 44 E8 24 F7 CE DB
    7D EF 57 13 0E 52 CF E9
}
{
    60 42 4F F2 32 34 C3 4D
    C9 68 7A D5 02 86 93 72
    CC 31 A5 93 80 18 6B C2
    36 1C 83 5D 97 2F 49 66
    6E B1 AC 69 62 9D E6 46
    F0 3F 9B 4D B9 E2 AC E0
    93 FB FD F8 F2 0A B5 F9
    85 41 97 8B E8 EF 54 9F
}
{
    74 06 01 8C E7 04 D8 4F
    5E B9 C7 9F EA 97 DA 34
    56 99 46 8A 35 0E E0 B2
    D0 F3 A4 BF 20 70 30 4E
    A8 62 D7 2A 51 C5 7D 30
    64 94 72 86 F5 31 E0 EA
    F7 56 37 02 26 2E 6C 72
    4A BF 5E D8 C8 39 8D 17
}
{
    14 EF 5C 6D 64 7B 3B D1
    E6 E3 20 06 C2 31 19 98
    10 DE 5C 4D C8 8E 70 24
    02 73 B0 EA 18 E6 51 A3
    EB 4F 5C A3 11 4B 8A 56
    71 69 69 C7 CD A2 7E 0C
    8D B8 32 AD 5E 89 A2 DC
    6C B0 AD BE 7D 93 AB D1
}
{
    38 CF 6C 24 E3 E0 8B CF
    1F 6C F3 D1 B1 F6 5B 90
    52 39 A3 11 80 33 24 9E
    44 81 13 EC 63 2E A6 DC
    34 6F EE B2 57 1C 38 BD
    9A 73 98 B2 22 12 80 32
    80 02 B2 3E 1A 45 AD AF
    FE 66 D9 3F 65 64 EA A2
}
{
    6C D7 20 8A 4B C7 E7 E5
    62 01 BB BA 02 A0 F4 89
    CD 38 4A BE 40 AF D4 22
    2F 15 8B 3D 98 6E E7 2A
    54 C5 0F B6 4F D4 ED 25
    30 ED A2 C8 AF 29 28 A0
    DA 6D 4F 83 0A E1 C9 DB
    46 9D FD 97 0F 12 A5 6F
}
{
    65 98 58 F0 B5 C9 ED AB
    5B 94 FD 73 2F 6E 6B 17
    C5 1C C0 96 10 4F 09 BE
    B3 AF C3 AA 46 7C 2E CF
    88 5C 4C 65 41 EF FA 90
    23 D3 B5 73 8A E5 A1 4D
    86 7E 15 DB 06 FE 1F 9D
    11 27 B7 7E 1A AB B5 16
}
{
    26 CC A0 12 6F 5D 1A 81
    3C 62 E5 C7 10 01 C0 46
    F9 C9 20 95 70 45 50 BE
    58 73 A4 95 A9 99 AD 01
    0A 4F 79 49 1F 24 F2 86
    50 0A DC E1 A1 37 BC 20
    84 E4 94 9F 5B 72 94 CE
    FE 51 EC AF F8 E9 5C BA
}
{
    41 47 C1 F5 51 72 78 8C
    55 67 C5 61 FE EF 87 6F
    62 1F FF 1C E8 77 86 B8
    46 76 37 E7 0D FB CD 0D
    BD B6 41 5C B6 00 95 4A
    B9 C0 4C 0E 45 7E 62 5B
    40 72 22 C0 FE 1A E2 1B
    21 43 68 8A DA 94 DC 58
}
{
    5B 1B F1 54 C6 2A 8A F6
    E9 3D 35 F1 8F 7F 90 AB
    B1 6A 6E F0 E8 D1 AE CD
    11 8B F7 01 67 BA B2 AF
    08 93 5C 6F DC 06 63 CE
    74 48 2D 17 A8 E5 4B 54
    6D 1C 29 66 31 C6 5F 3B
    52 2A 51 58 39 D4 3D 71
}
{
    9F 60 04 19 A4 E8 F4 FB
    83 4C 24 B0 F7 FC 13 BF
    4E 27 9D 98 E8 A3 C7 65
    EE 93 49 17 40 3E 3A 66
    09 71 82 EA 21 45 3C B6
    3E BB E8 B7 3A 9C 21 67
    59 64 46 43 8C 57 62 7F
    33 0B AD D4 F5 69 F7 D6
}
{
    45 7E F6 46 6A 89 24 FD
    80 11 A3 44 71 A5 A1 AC
    8C CD 9B D0 D0 7A 97 41
    4A C9 43 02 1C E4 B9 E4
    B9 C8 DB 0A 28 F0 16 ED
    43 B1 54 24 81 99 00 22
    14 7B 31 3E 19 46 71 13
    1E 70 8D D4 3A 3E D7 DC
}
{
    99 97 B2 19 4D 9A F6 DF
    CB 91 43 F4 1C 0E D8 3D
    3A 3F 43 88 36 11 03 D3
    8C 2A 49 B2 80 A5 81 21
    27 15 FD 90 8D 41 C6 51
    F5 C7 15 CA 38 C0 CE 28
    30 A3 7E 00 E5 08 CE D1
    BC DC 32 0E 5E 4D 1E 2E
}
{
    5C 6B BF 16 BA A1 80 F9
    86 BD 40 A1 28 7E D4 C5
    49 77 0E 72 84 85 8F C4
    7B C2 1A B9 5E BB F3 37
    4B 4E E3 FD 9F 2A F6 0F
    33 95 22 1B 2A CC 76 F2
    D3 4C 13 29 54 04 9F 8A
    3A 99 6F 1E 32 EC 84 E5
}
{
    D1 0B F9 A1 5B 1C 9F C8
    D4 1F 89 BB 14 0B F0 BE
    08 D2 F3 66 61 76 D1 3B
    AA C4 D3 81 35 8A D0 74
    C9 D4 74 8C 30 05 20 EB
    02 6D AE AE A7 C5 B1 58
    89 2F DE 4E 8E C1 7D C9
    98 DC D5 07 DF 26 EB 63
}
{
    2F C6 E6 9F A2 6A 89 A5
    ED 26 90 92 CB 9B 2A 44
    9A 44 09 A7 A4 40 11 EE
    CA D1 3D 7C 4B 04 56 60
    2D 40 2F A5 84 4F 1A 7A
    75 81 36 CE 3D 5D 8D 0E
    8B 86 92 1F FF F4 F6 92
    DD 95 BD C8 E5 FF 00 52
}
{
    FC BE 8B E7 DC B4 9A 32
    DB DF 23 94 59 E2 63 08
    B8 4D FF 1E A4 80 DF 8D
    10 4E EF F3 4B 46 FA E9
    86 27 B4 50 C2 26 7D 48
    C0 94 6A 69 7C 5B 59 53
    14 52 AC 04 84 F1 C8 4E
    3A 33 D0 C3 39 BB 2E 28
}
{
    A1 90 93 A6 E3 BC F5 95
    2F 85 0F 20 30 F6 9B 96
    06 F1 47 F9 0B 8B AE E3
    36 2D A7 1D 9F 35 B4 4E
    F9 D8 F0 A7 71 2B A1 87
    7F DD CD 2D 8E A8 F1 E5
    A7 73 D0 B7 45 D4 72 56
    05 98 3A 2D E9 01 F8 03
}
{
    3C 20 06 42 3F 73 E2 68
    FA 59 D2 92 03 77 EB 29
    A4 F9 A8 B4 62 BE 15 98
    3E E3 B8 5A E8 A7 8E 99
    26 33 58 1A 90 99 89 3B
    63 DB 30 24 1C 34 F6 43
    02 7D C8 78 27 9A F5 85
    0D 7E 2D 4A 26 53 07 3A
}
{
    D0 F2 F2 E3 78 76 53 F7
    7C CE 2F A2 48 35 78 5B
    BD 0C 43 3F C7 79 46 5A
    11 51 49 90 5A 9D D1 CB
    82 7A 62 85 06 D4 57 FC
    F1 24 A0 C2 AE F9 CE 2D
    2A 0A 0F 63 54 55 70 D8
    66 7F F9 E2 EB A0 73 34
}
{
    78 A9 FC 04 8E 25 C6 DC
    B5 DE 45 66 7D E8 FF DD
    3A 93 71 11 41 D5 94 E9
    FA 62 A9 59 47 5D A6 07
    5E A8 F0 91 6E 84 E4 5A
    D9 11 B7 54 67 07 7E E5
    2D 2C 9A EB F4 D5 8F 20
    CE 4A 3A 00 45 8B 05 D4
}
{
    45 81 3F 44 17 69 AB 6E
    D3 7D 34 9F F6 E7 22 67
    D7 6A E6 BB 3E 3C 61 2E
    C0 5C 6E 02 A1 2A F5 A3
    7C 91 8B 52 BF 74 26 7C
    3F 6A 3F 18 3A 80 64 FF
    84 C0 7B 19 3D 08 06 67
    89 A0 1A CC DB 6F 93 40
}
{
    95 6D A1 C6 8D 83 A7 B8
    81 E0 1B 9A 96 6C 3C 0B
    F2 7F 68 60 6A 8B 71 D4
    57 BD 01 6D 4C 41 DD 8A
    38 0C 70 9A 29 6C B4 C6
    54 47 92 92 0F D7 88 83
    57 71 A0 7D 4A 16 FB 52
    ED 48 05 03 31 DC 4C 8B
}
{
    DF 18 6C 2D C0 9C AA 48
    E1 4E 94 2F 75 DE 5A C1
    B7 A2 1E 4F 9F 07 2A 5B
    37 1E 09 E0 73 45 B0 74
    0C 76 17 7B 01 27 88 08
    FE C0 25 ED ED 98 22 C1
    22 AF D1 C6 3E 6F 0C E2
    E3 26 31 04 10 63 14 5C
}
{
    87 47 56 40 96 6A 9F DC
    D6 D3 A3 B5 A2 CC A5 C0
    8F 0D 88 2B 10 24 3C 0E
    C1 BF 3C 6B 1C 37 F2 CD
    32 12 F1 9A 05 78 64 47
    7D 5E AF 8F AE D7 3F 29
    37 C7 68 A0 AF 41 5E 84
    BB CE 6B D7 DE 23 B6 60
}
{
    C3 B5 73 BB E1 09 49 A0
    FB D4 FF 88 4C 44 6F 22
    29 B7 69 02 F9 DF DB B8
    A0 35 3D A5 C8 3C A1 4E
    81 51 BB AA C8 2F D1 57
    6A 00 9A DC 6F 19 35 CF
    26 ED D4 F1 FB 8D A4 83
    E6 C5 CD 9D 89 23 AD C3
}
{
    B0 9D 8D 0B BA 8A 72 86
    E4 35 68 F7 90 75 50 E4
    20 36 D6 74 E3 C8 FC 34
    D8 CA 46 F7 71 D6 46 6B
    70 FB 60 58 75 F6 A8 63
    C8 77 D1 2F 07 06 3F DC
    2E 90 CC D4 59 B1 91 0D
    CD 52 D8 F1 0B 2B 0A 15
}
{
    AF 3A 22 BF 75 B2 1A BF
    B0 AC D5 44 22 BA 1B 73
    00 A9 52 EF F0 2E BE B6
    5B 5C 23 44 71 A9 8D F3
    2F 4F 96 43 CE 19 04 10
    8A 16 87 67 92 42 80 BD
    76 C8 3F 8C 82 D9 A7 9D
    92 59 B1 95 36 2A 2A 04
}
{
    BF 4F F2 22 1B 7E 69 57
    A7 24 CD 96 4A A3 D5 D0
    D9 94 1F 54 04 13 75 2F
    46 99 D8 10 1B 3E 53 75
    08 BF 09 F8 50 8B 31 77
    36 FF D2 65 F2 84 7A A7
    D8 4B D2 D9 75 69 C4 9D
    63 2A ED 99 45 E5 FA 5E
}
{
    9C 6B 6B 78 19 9B 1B DA
    CB 43 00 E3 14 79 FA 62
    2A 6B 5B C8 0D 46 78 A6
    07 8F 88 A8 26 8C D7 20
    6A 27 99 E8 D4 62 1A 46
    4E F6 B4 3D D8 AD FF E9
    7C AF 22 1B 22 B6 B8 77
    8B 14 9A 82 2A EF BB 09
}
{
    89 06 56 F0 9C 99 D2 80
    B5 EC B3 81 F5 64 27 B8
    13 75 1B C6 52 C7 82 80
    78 B2 3A 4A F8 3B 4E 3A
    61 FD BA C6 1F 89 BE E8
    4E A6 BE E7 60 C0 47 F2
    5C 6B 0A 20 1C 69 A3 8F
    D6 FD 97 1A F1 85 88 BB
}
{
    31 A0 46 F7 88 2F FE 6F
    83 CE 47 2E 9A 07 01 83
    2E C7 B3 F7 6F BC FD 1D
    F6 0F E3 EA 48 FD E1 65
    12 54 24 7C 3F D9 5E 10
    0F 91 72 73 1E 17 FD 52
    97 C1 1F 4B B3 28 36 3C
    A3 61 62 4A 81 AF 79 7C
}
{
    27 A6 0B 2D 00 E7 A6 71
    D4 7D 0A EC 2A 68 6A 0A
    C0 4B 52 F4 0A B6 62 90
    28 EB 7D 13 F4 BA A9 9A
    C0 FE 46 EE 6C 81 49 44
    F2 F4 B4 D2 0E 93 78 E4
    84 7E A4 4C 13 17 80 91
    E2 77 B8 7E A7 A5 57 11
}
{
    8B 5C CE F1 94 16 2C 1F
    19 D6 8F 91 E0 B0 92 8F
    28 9E C5 28 37 20 84 0C
    2F 73 D2 53 11 12 38 DC
    FE 94 AF 2B 59 C2 C1 CA
    25 91 90 1A 7B C0 60 E7
    45 9B 6C 47 DF 0F 71 70
    1A 35 CC 0A A8 31 B5 B6
}
{
    57 AB 6C 4B 22 29 AE B3
    B7 04 76 D8 03 CD 63 81
    2F 10 7C E6 DA 17 FE D9
    B1 78 75 E8 F8 6C 72 4F
    49 E0 24 CB F3 A1 B8 B1
    19 C5 03 57 65 2B 81 87
    9D 2A DE 2D 58 8B 9E 4F
    7C ED BA 0E 46 44 C9 EE
}
{
    01 90 A8 DA C3 20 A7 39
    F3 22 E1 57 31 AA 14 0D
    DA F5 BE D2 94 D5 C8 2E
    54 FE F2 9F 21 4E 18 AA
    FA A8 4F 8B E9 9A F6 29
    50 26 6B 8F 90 1F 15 DD
    4C 5D 35 51 6F C3 5B 4C
    AB 2E 96 E4 69 5B BE 1C
}
{
    D1 4D 7C 4C 41 5E EB 0E
    10 B1 59 22 4B EA 12 7E
    BD 84 F9 59 1C 70 2A 33
    0F 5B B7 BB 7A A4 4E A3
    9D E6 ED 01 F1 8D A7 AD
    F4 0C FB 97 C5 D1 52 C2
    75 28 82 4B 21 E2 39 52
    6A F8 F3 6B 21 4E 0C FB
}
{
    BE 28 C4 BE 70 69 70 48
    8F AC 7D 29 C3 BD 5C 4E
    98 60 85 C4 C3 33 2F 1F
    3F D3 09 73 DB 61 41 64
    BA 2F 31 A7 88 75 FF DC
    15 03 25 C8 83 27 A9 44
    3E D0 4F DF E5 BE 93 87
    6D 16 28 56 0C 76 4A 80
}
{
    03 1D A1 06 9E 3A 2E 9C
    33 82 E4 36 FF D7 9D F7
    4B 1C A6 A8 AD B2 DE AB
    E6 76 AB 45 99 4C BC 05
    4F 03 7D 2F 0E AC E8 58
    D3 2C 14 E2 D1 C8 B4 60
    77 30 8E 3B DC 2C 1B 53
    17 2E CF 7A 8C 14 E3 49
}
{
    46 65 CE F8 BA 4D B4 D0
    AC B1 18 F2 98 7F 0B B0
    9F 8F 86 AA 44 5A A3 D5
    FC 9A 8B 34 68 64 78 74
    89 E8 FC EC C1 25 D1 7E
    9B 56 E1 29 88 EA C5 EC
    C7 28 68 83 DB 06 61 B8
    FF 05 DA 2A FF F3 0F E4
}
{
    63 B7 03 2E 5F 93 0C C9
    93 95 17 F9 E9 86 81 6C
    FB EC 2B E5 9B 95 68 B1
    3F 2E AD 05 BA E7 77 7C
    AB 62 0C 66 59 40 4F 74
    09 E4 19 9A 3B E5 F7 86
    5A A7 CB DF 8C 42 53 F7
    E8 21 9B 1B D5 F4 6F EA
}
{
    9F 09 BF 09 3A 2B 0F F8
    C2 63 4B 49 E3 7F 1B 21
    35 B4 47 AA 91 44 C9 78
    7D BF D9 21 29 31 6C 99
    E8 8A AB 8A 21 FD EF 23
    72 D1 18 9A EC 50 0F 95
    77 5F 1F 92 BF B4 55 45
    E4 25 9F B9 B7 B0 2D 14
}
{
    F9 F8 49 3C 68 08 88 07
    DF 7F 6A 26 93 D6 4E A5
    9F 03 E9 E0 5A 22 3E 68
    52 4C A3 21 95 A4 73 4B
    65 4F CE A4 D2 73 4C 86
    6C F9 5C 88 9F B1 0C 49
    15 9B E2 F5 04 3D C9 8B
    B5 5E 02 EF 7B DC B0 82
}
{
    3C 9A 73 59 AB 4F EB CE
    07 B2 0A C4 47 B0 6A 24
    0B 7F E1 DA E5 43 9C 49
    B6 0B 58 19 F7 81 2E 4C
    17 24 06 C1 AA C3 16 71
    3C F0 DD ED 10 38 07 72
    58 E2 EF F5 B3 39 13 D9
    D9 5C AE B4 E6 C6 B9 70
}
{
    AD 6A AB 80 84 51 0E 82
    2C FC E8 62 5D 62 CF 4D
    E6 55 F4 76 38 84 C7 1E
    80 BA B9 AC 9D 53 18 DB
    A4 A6 03 3E D2 90 84 E6
    52 16 C0 31 60 6C A1 76
    15 DC FE 3B A1 1D 26 85
    1A E0 99 9C A6 E2 32 CF
}
{
    15 6E 9E 62 61 37 4C 9D
    C8 84 F3 6E 70 F0 FE 1A
    B9 29 79 97 B8 36 FA 7D
    17 0A 9C 9E BF 57 5B 88
    1E 7B CE A4 4D 6C 02 48
    D3 55 97 90 71 54 82 89
    55 BE 19 13 58 52 F9 22
    88 15 EC A0 24 A8 AD FB
}
{
    42 15 40 76 33 F4 CC A9
    B6 78 8B E9 3E 6A A3 D9
    63 C7 D6 CE 4B 14 72 47
    09 9F 46 A3 AC B5 00 A3
    00 38 CB 3E 78 8C 3D 29
    F1 32 AD 84 4E 80 E9 E9
    92 51 F6 DB 96 AC D8 A0
    91 CF C7 70 AF 53 84 7B
}
{
    1C 07 7E 27 9D E6 54 85
    23 50 2B 6D F8 00 FF DA
    B5 E2 C3 E9 44 2E B8 38
    F5 8C 29 5F 3B 14 7C EF
    9D 70 1C 41 C3 21 28 3F
    00 C7 1A FF A0 61 93 10
    39 91 26 29 5B 78 DD 4D
    1A 74 57 2E F9 ED 51 35
}
{
    F0 7A 55 5F 49 FE 48 1C
    F4 CD 0A 87 B7 1B 82 E4
    A9 50 64 D0 66 77 FD D9
    0A 0E B5 98 87 7B A1 C8
    3D 46 77 B3 93 C3 A3 B6
    66 1C 42 1F 5B 12 CB 99
    D2 03 76 BA 72 75 C2 F3
    A8 F5 A9 B7 82 17 20 DA
}
{
    B5 91 1B 38 0D 20 C7 B0
    43 23 E4 02 6B 38 E2 00
    F5 34 25 92 33 B5 81 E0
    2C 1E 3E 2D 84 38 D6 C6
    6D 5A 4E B2 01 D5 A8 B7
    50 72 C4 EC 29 10 63 34
    DA 70 BC 79 52 1B 0C ED
    2C FD 53 3F 5F F8 4F 95
}
{
    01 F0 70 A0 9B AE 91 12
    96 36 1F 91 AA 0E 8E 0D
    09 A7 72 54 78 53 6D 9D
    48 C5 FE 1E 5E 7C 3C 5B
    9B 9D 6E B0 77 96 F6 DA
    57 AE 56 2A 7D 70 E8 82
    E3 7A DF DE 83 F0 C4 33
    C2 CD 36 35 36 BB 22 C8
}
{
    6F 79 3E B4 37 4A 48 B0
    77 5A CA F9 AD CF 8E 45
    E5 42 70 C9 47 5F 00 4A
    D8 D5 97 3E 2A CA 52 74
    7F F4 ED 04 AE 96 72 75
    B9 F9 EB 0E 1F F7 5F B4
    F7 94 FA 8B E9 AD D7 A4
    13 04 86 8D 10 3F AB 10
}
{
    96 5F 20 F1 39 76 5F CC
    4C E4 BA 37 94 67 58 63
    CA C2 4D B4 72 CD 2B 79
    9D 03 5B CE 3D BE A5 02
    DA 7B 52 48 65 F6 B8 11
    D8 C5 82 8D 3A 88 96 46
    FE 64 A3 80 DA 1A A7 C7
    04 4E 9F 24 5D CE D1 28
}
{
    EC 29 5B 57 83 60 12 44
    C3 0E 46 41 E3 B4 5B E2
    22 C4 DC E7 7A 58 70 0F
    53 BC 8E C5 2A 94 16 90
    B4 D0 B0 87 FB 6F CB 3F
    39 83 2B 9D E8 F7 5E C2
    0B D4 30 79 81 17 49 CD
    C9 07 ED B9 41 57 D1 80
}
{
    61 C7 2F 8C CC 91 DB B5
    4C A6 75 0B C4 89 67 2D
    E0 9F AE DB 8F DD 4F 94
    FF 23 20 90 9A 30 3F 5D
    5A 98 48 1C 0B C1 A6 25
    41 9F B4 DE BF BF 7F 8A
    53 BB 07 EC 3D 98 5E 8E
    A1 1E 72 D5 59 94 07 80
}
{
    AF D8 14 5B 25 9E EF C8
    D1 26 20 C3 C5 B0 3E 1E
    D8 FD 2C CE FE 03 65 07
    8C 80 FD 42 C1 77 0E 28
    B4 49 48 F2 7E 65 A1 88
    66 90 11 0D B8 14 39 7B
    68 E4 3D 80 D1 BA 16 DF
    A3 58 E7 39 C8 98 CF A3
}
{
    55 2F C7 89 3C F1 CE 93
    3A DA 35 C0 DA 98 84 4E
    41 54 5E 24 4C 31 57 A1
    42 8D 7B 4C 21 F9 CD 7E
    40 71 AE D7 7B 7C A9 F1
    C3 8F BA 32 23 74 12 EF
    21 A3 42 74 2E C8 32 43
    78 F2 1E 50 7F AF DD 88
}
{
    46 7A 33 FB AD F5 EB C5
    25 96 EF 86 AA AE FC 6F
    AB A8 EE 65 1B 1C E0 4D
    E3 68 A0 3A 5A 90 40 EF
    28 35 E0 0A DB 09 AB B3
    FB D2 BC E8 18 A2 41 3D
    0B 02 53 B5 BD A4 FC 5B
    2F 6F 85 F3 FD 5B 55 F2
}
{
    22 EF F8 E6 DD 52 36 F5
    F5 7D 94 ED E8 74 D6 C9
    42 8E 8F 5D 56 6F 17 CD
    6D 18 48 CD 75 2F E1 3C
    65 5C B1 0F BA AF F7 68
    72 F2 BF 2D A9 9E 15 DC
    62 40 75 E1 EC 2F 58 A3
    F6 40 72 12 18 38 56 9E
}
{
    9C EC 6B BF 62 C4 BC E4
    13 8A BA E1 CB EC 8D AD
    31 95 04 44 E9 03 21 B1
    34 71 96 83 4C 11 4B 86
    4A F3 F3 CC 35 08 F8 37
    51 FF B4 ED A7 C8 4D 14
    07 34 BB 42 63 C3 62 5C
    00 F0 4F 4C 80 68 98 1B
}
{
    A8 B6 0F A4 FC 24 42 F6
    F1 51 4A D7 40 26 26 92
    0C C7 C2 C9 F7 21 24 B8
    CB A8 EE 2C B7 C4 58 6F
    65 8A 44 10 CF FC C0 AB
    88 34 39 55 E0 94 C6 AF
    0D 20 D0 C7 14 FB 0A 98
    8F 54 3F 30 0F 58 D3 89
}
{
    82 71 CC 45 DF A5 E4 17
    0E 84 7E 86 30 B9 52 CF
    9C 2A A7 77 D0 6F 26 A7
    58 5B 83 81 F1 88 DA CC
    73 37 39 1C FC C9 4B 05
    3D C4 EC 29 CC 17 F0 77
    87 04 28 F1 AC 23 FD DD
    A1 65 EF 5A 3F 15 5F 39
}
{
    BF 23 C0 C2 5C 80 60 E4
    F6 99 5F 16 23 A3 BE BE
    CA A9 6E 30 86 80 00 0A
    8A A3 CD 56 BB 1A 6D A0
    99 E1 0D 92 31 B3 7F 45
    19 B2 EF D2 C2 4D E7 2F
    31 A5 F1 95 35 24 1B 4A
    59 FA 3C 03 CE B7 90 E7
}
{
    87 7F D6 52 C0 52 81 00
    9C 0A 52 50 E7 A3 A6 71
    F8 B1 8C 10 88 17 FE 4A
    87 4D E2 2D A8 E4 5D B1
    19 58 A6 00 C5 F6 2E 67
    D3 6C BF 84 47 4C F2 44
    A9 C2 B0 3A 9F B9 DC 71
    1C D1 A2 CA B6 F3 FA E0
}
{
    29 DF 4D 87 EA 44 4B AF
    5B CD F5 F4 E4 15 79 E2
    8A 67 DE 84 14 9F 06 C0
    3F 11 0E A8 4F 57 2A 9F
    67 6A DD D0 4C 48 78 F4
    9C 5C 00 AC CD A4 41 B1
    A3 87 CA CE B2 E9 93 BB
    7A 10 CD 8C 2D 67 17 E1
}
{
    71 0D AC B1 66 84 46 39
    CD 7B 63 7C 27 42 09 42
    4E 24 49 DC 35 D7 90 BB
    FA 4F 76 17 70 54 A3 6B
    3B 76 FA C0 CA 6E 61 DF
    1E 68 70 00 67 8A C0 74
    6D F7 5D 0A 39 54 89 76
    81 FD 39 3A 15 5A 1B B4
}
{
    C1 D5 F9 3B 8D EA 1F 25
    71 BA BC CB C0 17 64 54
    1A 0C DA 87 E4 44 D6 73
    C5 09 66 CA 55 9C 33 35
    4B 3A CB 26 E5 D5 78 1F
    FB 28 84 7A 4B 47 54 D7
    70 08 C6 2A 83 58 35 F5
    00 DE A7 C3 B5 8B DA E2
}
{
    A4 1E 41 27 1C DA B8 AF
    4D 72 B1 04 BF B2 AD 04
    1A C4 DF 14 67 7D A6 71
    D8 56 40 C4 B1 87 F5 0C
    2B 66 51 3C 46 19 FB D5
    D5 DC 4F E6 5D D3 7B 90
    42 E9 84 8D DA 55 6A 50
    4C AA 2B 1C 6A FE 47 30
}
{
    E7 BC BA CD C3 79 C4 3D
    81 EB AD CB 37 78 15 52
    FC 1D 75 3E 8C F3 10 D9
    68 39 2D 06 C9 1F 1D 64
    CC 9E 90 CE 1D 22 C3 2D
    27 7F C6 CD A4 33 A4 D4
    42 C7 62 E9 EA CF 2C 25
    9F 32 D6 4C F9 DA 3A 22
}
{
    51 75 5B 4A C5 45 6B 13
    21 8A 19 C5 B9 24 2F 57
    C4 A9 81 E4 D4 EC DC E0
    9A 31 93 36 2B 80 8A 57
    93 45 D4 88 1C 26 07 A5
    65 34 DD 7F 21 95 6A FF
    72 C2 F4 17 3A 6E 7B 6C
    C2 21 2B A0 E3 DA EE 1F
}
{
    DC C2 C4 BE B9 C1 F2 60
    7B 78 6C 20 C6 31 97 23
    47 03 4C 1C C0 2F CC 7D
    02 FF 01 09 9C FE 1C 69
    89 84 0A C2 13 92 36 29
    11 3A A8 BA D7 13 CC F0
    FE 4C E1 32 64 FB 32 B8
    B0 FE 37 2D A3 82 54 4A
}
{
    3D 55 17 6A CE A4 A7 E3
    A6 5F FA 9F B1 0A 7A 17
    67 19 9C F0 77 CE E9 F7
    15 32 D6 7C D7 C7 3C 9F
    93 CF C3 7C CD CC 1F DE
    F5 0A AD 46 A5 04 A6 50
    D2 98 D5 97 A3 A9 FA 95
    C6 C4 0C B7 1F A5 E7 25
}
{
    D0 77 13 C0 05 DE 96 DD
    21 D2 EB 8B BE CA 66 74
    6E A5 1A 31 AE 92 2A 3E
    74 86 48 89 54 0A 48 DB
    27 D7 E4 C9 03 11 63 8B
    22 4B F0 20 1B 50 18 91
    75 48 48 11 3C 26 61 08
    D0 AD B1 3D B7 19 09 C7
}
{
    58 98 3C 21 43 3D 95 0C
    AA 23 E4 BC 18 54 3B 8E
    60 1C 20 43 18 53 21 52
    DA F5 E1 59 A0 CD 14 80
    18 3D 29 28 5C 05 F1 29
    CB 0C C3 16 46 87 92 80
    86 FF E3 80 15 8D F1 D3
    94 C6 AC 0D 42 88 BC A8
}
{
    81 00 A8 DC 52 8D 2B 68
    2A B4 25 08 01 BA 33 F0
    2A 3E 94 C5 4D AC 0A E1
    48 2A A2 1F 51 EF 3A 82
    F3 80 7E 6F AC B0 AE B0
    59 47 BF 7A A2 AD CB 03
    43 56 F9 0F A4 56 0E DE
    02 20 1A 37 E4 11 EC 1A
}
{
    07 02 5F 1B B6 C7 84 F3
    FE 49 DE 5C 14 B9 36 A5
    AC AC AC AA B3 3F 6A C4
    D0 E0 0A B6 A1 24 83 D6
    BE C0 0B 4F E6 7C 7C A5
    CC 50 8C 2A 53 EF B5 BF
    A5 39 87 69 D8 43 FF 0D
    9E 8B 14 D3 6A 01 A7 7F
}
{
    BA 6A EF D9 72 B6 18 6E
    02 7A 76 27 3A 4A 72 33
    21 A3 F5 80 CF A8 94 DA
    5A 9C E8 E7 21 C8 28 55
    2C 64 DA CE E3 A7 FD 2D
    74 3B 5C 35 AD 0C 8E FA
    71 F8 CE 99 BF 96 33 47
    10 E2 C2 34 6E 8F 3C 52
}
{
    E0 72 1E 02 51 7A ED FA
    4E 7E 9B A5 03 E0 25 FD
    46 E7 14 56 6D C8 89 A8
    4C BF E5 6A 55 DF BE 2F
    C4 93 8A C4 12 05 88 33
    5D EA C8 EF 3F A2 29 AD
    C9 64 7F 54 AD 2E 34 72
    23 4F 9B 34 EF C4 65 43
}
{
    B6 29 26 69 CC D3 8D 5F
    01 CA AE 96 BA 27 2C 76
    A8 79 A4 57 43 AF A0 72
    5D 83 B9 EB B2 66 65 B7
    31 F1 84 8C 52 F1 19 72
    B6 64 4F 55 4C 06 4F A9
    07 80 DB BB F3 A8 9D 4F
    C3 1F 67 DF 3E 58 57 EF
}
{
    23 19 E3 78 9C 47 E2 DA
    A5 FE 80 7F 61 BE C2 A1
    A6 53 7F A0 3F 19 FF 32
    E8 7E EC BF D6 4B 7E 0E
    8C CF F4 39 AC 33 3B 04
    0F 19 B0 C4 DD D1 1A 61
    E2 4A C1 FE 0F 10 A0 39
    80 6C 5D CC 0D A3 D1 15
}
{
    F5 97 11 D4 4A 03 1D 5F
    97 A9 41 3C 06 5D 1E 61
    4C 41 7E DE 99 85 90 32
    5F 49 BA D2 FD 44 4D 3E
    44 18 BE 19 AE C4 E1 14
    49 AC 1A 57 20 78 98 BC
    57 D7 6A 1B CF 35 66 29
    2C 20 C6 83 A5 C4 64 8F
}
{
    DF 0A 9D 0C 21 28 43 A6
    A9 34 E3 90 2B 2D D3 0D
    17 FB A5 F9 69 D2 03 0B
    12 A5 46 D8 A6 A4 5E 80
    CF 56 35 F0 71 F0 45 2E
    9C 91 92 75 DA 99 BE D5
    1E B1 17 3C 1A F0 51 87
    26 B7 5B 0E C3 BA E2 B5
}
{
    A3 EB 6E 6C 7B F2 FB 8B
    28 BF E8 B1 5E 15 BB 50
    0F 78 1E CC 86 F7 78 C3
    A4 E6 55 FC 58 69 BF 28
    46 A2 45 D4 E3 3B 7B 14
    43 6A 17 E6 3B E7 9B 36
    65 5C 22 6A 50 FF BC 71
    24 20 7B 02 02 34 2D B5
}
{
    56 D4 CB CD 07 05 63 42
    6A 01 70 69 42 5C 2C D2
    AE 54 06 68 28 7A 5F B9
    DA C4 32 EB 8A B1 A3 53
    A3 0F 2F E1 F4 0D 83 33
    3A FE 69 6A 26 77 95 40
    8A 92 FE 7D A0 7A 0C 18
    14 CF 77 F3 6E 10 5E E8
}
{
    E5 9B 99 87 D4 28 B3 ED
    A3 7D 80 AB DB 16 CD 2B
    0A EF 67 4C 2B 1D DA 44
    32 EA 91 EE 6C 93 5C 68
    4B 48 B4 42 8A 8C C7 40
    E5 79 A3 0D EF F3 5A 80
    30 13 82 0D D2 3F 14 AE
    1D 84 13 B5 C8 67 2A EC
}
{
    CD 9F CC 99 F9 9D 4C C1
    6D 03 19 00 B2 A7 36 E1
    50 8D B4 B5 86 81 4E 63
    45 85 7F 35 4A 70 CC EC
    B1 DF 3B 50 A1 9A DA F4
    3C 27 8E FA 42 3F F4 BB
    6C 52 3E C7 FD 78 59 B9
    7B 16 8A 7E BF F8 46 7C
}
{
    06 02 18 5D 8C 3A 78 73
    8B 99 16 4B 8B C6 FF B2
    1C 7D EB EB BF 80 63 72
    E0 DA 44 D1 21 54 55 97
    B9 C6 62 A2 55 DC 31 54
    2C F9 95 EC BE 6A 50 FB
    5E 6E 0E E4 EF 24 0F E5
    57 ED ED 11 88 08 7E 86
}
{
    C0 8A FA 5B 92 7B F0 80
    97 AF C5 FF F9 CA 4E 78
    00 12 5C 1F 52 F2 AF 35
    53 FA 2B 89 E1 E3 01 5C
    4F 87 D5 E0 A4 89 56 AD
    31 45 0B 08 3D AD 14 7F
    FB 5E C0 34 34 A2 68 30
    CF 37 D1 03 AB 50 C5 DA
}
{
    36 F1 E1 C1 1D 6E F6 BC
    3B 53 6D 50 5D 54 4A 87
    15 22 C5 C2 A2 53 06 7E
    C9 93 3B 6E C2 54 64 DA
    F9 85 52 5F 5B 95 60 A1
    6D 89 02 59 AC 1B B5 CC
    67 C0 C4 69 CD E1 33 DE
    F0 00 EA 1D 68 6F 4F 5D
}
{
    BF 2A B2 E2 47 0F 54 38
    C3 B6 89 E6 6E 76 86 FF
    FA 0C B1 E1 79 8A D3 A8
    6F F9 90 75 BF 61 38 E3
    3D 9C 0C E5 9A FB 24 AC
    67 A0 2A F3 44 28 19 1A
    9A 0A 60 41 C0 74 71 B7
    C3 B1 A7 52 D6 FC 0B 8B
}
{
    D4 00 60 1F 97 28 CC C4
    C9 23 42 D9 78 7D 8D 28
    AB 32 3A F3 75 CA 56 24
    B4 BB 91 D1 72 71 FB AE
    86 2E 41 3B E7 3F 1F 68
    E6 15 B8 C5 C3 91 BE 0D
    BD 91 44 74 6E B3 39 AD
    54 15 47 BA 9C 46 8A 17
}
{
    79 FE 2F E1 57 EB 85 A0
    38 AB B8 EB BC 64 77 31
    D2 C8 3F 51 B0 AC 6E E1
    4A A2 84 CB 6A 35 49 A4
    DC CE B3 00 74 0A 82 5F
    52 F5 FB 30 B0 3B 8C 4D
    8B 0F 4A A6 7A 63 F4 A9
    4E 33 03 C4 ED A4 C0 2B
}
{
    75 35 13 13 B5 2A 85 29
    29 8D 8C 18 6B 17 68 66
    6D CC A8 59 53 17 D7 A4
    81 6E B8 8C 06 20 20 C0
    C8 EF C5 54 BB 34 1B 64
    68 8D B5 CC AF C3 5F 3C
    3C D0 9D 65 64 B3 6D 7B
    04 A2 48 E1 46 98 0D 4B
}
{
    E3 12 8B 1D 31 1D 02 17
    9D 7F 25 F9 7A 5A 8B EE
    2C C8 C8 63 03 64 4F CD
    66 4E 15 7D 1F EF 00 F2
    3E 46 F9 A5 E8 E5 C8 90
    CE 56 5B B6 AB D4 30 2C
    E0 64 69 D5 2A 5B D5 3E
    1C 5A 54 D0 46 49 DC 03
}
{
    C2 38 2A 72 D2 D3 AC E9
    D5 93 3D 00 B6 08 27 ED
    38 0C DA 08 D0 BA 5F 6D
    D4 1E 29 EE 6D BE 8E CB
    92 35 F0 6B E9 5D 83 B6
    81 6A 2F B7 A5 AD 47 03
    5E 8A 4B 69 A4 88 4B 99
    E4 BE CE 58 CA B2 5D 44
}
{
    6B 1C 69 46 0B BD 50 AC
    2E D6 F3 2E 6E 88 7C FE
    D4 07 D4 7D CF 0A AA 60
    38 7F E3 20 D7 80 BD 03
    EA B6 D7 BA EB 2A 07 D1
    0C D5 52 A3 00 34 13 54
    EA 9A 5F 03 18 3A 62 3F
    92 A2 D4 D9 F0 09 26 AF
}
{
    6C DA 20 6C 80 CD C9 C4
    4B A9 90 E0 32 8C 31 4F
    81 9B 14 2D 00 63 04 04
    C4 8C 05 DC 76 D1 B0 0C
    E4 D7 2F C6 A4 8E 14 69
    DD EF 60 94 12 C3 64 82
    08 54 21 4B 48 69 AF 09
    0F 00 D3 C1 BA 44 3E 1B
}
{
    7F FC 8C 26 FB D6 A0 F7
    A6 09 E6 E1 93 9F 6A 9E
    DF 1B 0B 06 66 41 FB 76
    C4 F9 60 2E D7 48 D1 16
    02 49 6B 35 35 5B 1A A2
    55 85 0A 50 9D 2F 8E E1
    8C 8F 3E 1D 7D CB C3 7A
    13 65 98 F5 6A 59 ED 17
}
{
    70 DE 1F 08 DD 4E 09 D5
    FC 15 1F 17 FC 99 1A 23
    AB FC 05 10 42 90 D5 04
    68 88 2E FA F5 82 B6 EC
    2F 14 F5 77 C0 D6 8C 3A
    D0 66 26 91 6E 3C 86 E6
    DA AB 6C 53 E5 16 3E 82
    B6 BD 0C E4 9F C0 D8 DF
}
{
    4F 81 93 57 56 ED 35 EE
    20 58 EE 0C 6A 61 10 D6
    FA C5 CB 6A 4F 46 AA 94
    11 60 3F 99 96 58 23 B6
    DA 48 38 27 6C 5C 06 BC
    78 80 E3 76 D9 27 58 36
    9E E7 30 5B CE C8 D3 CF
    D2 8C CA BB 7B 4F 05 79
}
{
    AB CB 61 CB 36 83 D1 8F
    27 AD 52 79 08 ED 2D 32
    A0 42 6C B7 BB 4B F1 80
    61 90 3A 7D C4 2E 7E 76
    F9 82 38 23 04 D1 8A F8
    C8 0D 91 DD 58 DD 47 AF
    76 F8 E2 C3 6E 28 AF 24
    76 B4 BC CF 82 E8 9F DF
}
{
    02 D2 61 AD 56 A5 26 33
    1B 64 3D D2 18 6D E9 A8
    2E 72 A5 82 23 CD 1E 72
    36 86 C5 3D 86 9B 83 B9
    46 32 B7 B6 47 AB 2A FC
    0D 52 2E 29 DA 3A 56 15
    B7 41 D8 28 52 E0 DF 41
    B6 60 07 DB CB A9 05 43
}
{
    C5 83 27 41 FA 30 C5 43
    68 23 01 53 83 D2 97 FF
    4C 4A 5D 72 76 C3 F9 02
    12 20 66 E0 4B E5 43 1B
    1A 85 FA F7 3B 91 84 34
    F9 30 09 63 D1 DE A9 E8
    AC 39 24 EF 49 02 26 ED
    EE A5 F7 43 E4 10 66 9F
}
{
    CF AE AB 26 8C D0 75 A5
    A6 AE D5 15 02 3A 03 2D
    54 F2 F2 FF 73 3C E0 CB
    C7 8D B5 1D B4 50 4D 67
    59 23 F8 27 46 D6 59 46
    06 AD 5D 67 73 4B 11 A6
    7C C6 A4 68 C2 03 2E 43
    CA 1A 94 C6 27 3A 98 5E
}
{
    86 08 50 F9 2E B2 68 27
    2B 67 D1 33 60 9B D6 4E
    34 F6 1B F0 3F 4C 17 38
    64 5C 17 FE C8 18 46 5D
    7E CD 2B E2 90 76 41 13
    00 25 FD A7 94 70 AB 73
    16 46 E7 F6 94 40 E8 36
    7E A7 6A C4 CE E8 A1 DF
}
{
    84 B1 54 ED 29 BB ED EF
    A6 48 28 68 39 04 6F 4B
    5A A3 44 30 E2 D6 7F 74
    96 E4 C3 9F 2C 7E A7 89
    95 F6 9E 12 92 20 00 16
    F1 6A C3 B3 77 00 E6 C7
    E7 86 1A FC 39 6B 64 A5
    9A 1D BF 47 A5 5C 4B BC
}
{
    AE EE C2 60 A5 D8 EF F5
    CC AB 8B 95 DA 43 5A 63
    ED 7A 21 EA 7F C7 55 94
    13 FD 61 7E 33 60 9F 8C
    29 0E 64 BB AC C5 28 F6
    C0 80 26 22 88 B0 F0 A3
    21 9B E2 23 C9 91 BE E9
    2E 72 34 95 93 E6 76 38
}
{
    8A D7 8A 9F 26 60 1D 12
    7E 8D 2F 2F 97 6E 63 D1
    9A 05 4A 17 DC F5 9E 0F
    01 3A B5 4A 68 87 BB DF
    FD E7 AA AE 11 7E 0F BF
    32 71 01 65 95 B9 D9 C7
    12 C0 1B 2C 53 E9 65 5A
    38 2B C4 52 2E 61 66 45
}
{
    89 34 15 9D AD E1 AC 74
    14 7D FA 28 2C 75 95 4F
    CE F4 43 EF 25 F8 0D FE
    9F B6 EA 63 3B 85 45 11
    1D 08 B3 4E F4 3F FF 17
    02 6C 79 64 F5 DE AC 6D
    2B 3C 29 DA CF 27 47 F0
    22 DF 59 67 DF DC 1A 0A
}
{
    CD 36 DD 0B 24 06 14 CF
    2F A2 B9 E9 59 67 9D CD
    D7 2E C0 CD 58 A4 3D A3
    79 0A 92 F6 CD EB 9E 1E
    79 5E 47 8A 0A 47 D3 71
    10 0D 34 0C 5C ED CD BB
    C9 E6 8B 3F 46 08 18 E5
    BD FF 7B 4C DA 4C 27 44
}
{
    00 DF 4E 09 9B 80 71 37
    A8 59 90 F4 9D 3A 94 31
    5E 5A 5F 7F 7A 60 76 B3
    03 E9 6B 05 6F B9 38 00
    11 1F 47 96 28 E2 F8 DB
    59 AE B6 AC 70 C3 B6 1F
    51 F9 B4 6E 80 FF DE AE
    25 EB DD B4 AF 6C B4 EE
}
{
    2B 9C 95 5E 6C AE D4 B7
    C9 E2 46 B8 6F 9A 17 26
    E8 10 C5 9D 12 6C EE 66
    ED 71 BF 01 5B 83 55 8A
    4B 6D 84 D1 8D C3 FF 46
    20 C2 FF B7 22 35 9F DE
    F8 5B A0 D4 E2 D2 2E CB
    E0 ED 78 4F 99 AF E5 87
}
{
    18 1D F0 A2 61 A2 F7 D2
    9E A5 A1 57 72 71 51 05
    D4 50 A4 B6 C2 36 F6 99
    F4 62 D6 0C A7 64 87 FE
    ED FC 9F 5E B9 2D F8 38
    E8 FB 5D C3 69 4E 84 C5
    E0 F4 A1 0B 76 1F 50 67
    62 BE 05 2C 74 5A 6E E8
}
{
    21 FB 20 34 58 BF 3A 7E
    9A 80 43 9F 9A 90 28 99
    CD 5D E0 13 9D FD 56 F7
    11 0C 9D EC 84 37 B2 6B
    DA 63 DE 2F 56 59 26 D8
    5E DB 1D 6C 68 25 66 97
    43 DD 99 92 65 3D 13 97
    95 44 D5 DC 82 28 BF AA
}
{
    EF 02 1F 29 C5 FF B8 30
    E6 4B 9A A9 05 8D D6 60
    FD 2F CB 81 C4 97 A7 E6
    98 BC FB F5 9D E5 AD 4A
    86 FF 93 C1 0A 4B 9D 1A
    E5 77 47 25 F9 07 2D CD
    E9 E1 F1 99 BA B9 1F 8B
    FF 92 18 64 AA 50 2E EE
}
{
    B3 CF DA 40 52 6B 7F 1D
    37 56 9B DF CD F9 11 E5
    A6 EF E6 B2 EC 90 A0 45
    4C 47 B2 C0 46 BF 13 0F
    C3 B3 52 B3 4D F4 81 3D
    48 D3 3A B8 E2 69 B6 9B
    07 56 76 CB 6D 00 A8 DC
    F9 E1 F9 67 EC 19 1B 2C
}
{
    B4 C6 C3 B2 67 07 1E EF
    B9 C8 C7 2E 0E 2B 94 12
    93 64 1F 86 73 CB 70 C1
    CC 26 AD 1E 73 CF 14 17
    55 86 0A D1 9B 34 C2 F3
    4E D3 5B B5 2E C4 50 7C
    C1 FE 59 04 77 43 A5 F0
    C6 FE BD E6 25 E2 60 91
}
{
    57 A3 4F 2B CC A6 0D 4B
    85 10 3B 83 0C 9D 79 52
    A4 16 BE 52 63 AE 42 9C
    9E 5E 53 FE 85 90 A8 F7
    8E C6 5A 51 10 9E A8 5D
    CD F7 B6 22 3F 9F 2B 34
    05 39 FA D8 19 23 DB F8
    ED AB F9 51 29 E4 DF F6
}
{
    9C F4 66 62 FC D6 1A 23
    22 77 B6 85 66 3B 8B 5D
    A8 32 DF D9 A3 B8 CC FE
    EC 99 3E C6 AC 41 5A D0
    7E 04 8A DF E4 14 DF 27
    27 70 DB A8 67 DA 5C 12
    24 C6 FD 0A A0 C2 18 7D
    42 6A C6 47 E9 88 73 61
}
{
    5C E1 04 2A B4 D5 42 C2
    F9 EE 9D 17 26 2A F8 16
    40 98 93 5B EF 17 3D 0E
    18 48 9B 04 84 17 46 CD
    2F 2D F8 66 BD 7D A6 E5
    EF 90 24 C6 48 02 3E C7
    23 AB 9C 62 FD 80 28 57
    39 D8 4F 15 D2 AB 51 5A
}
{
    84 88 39 6B D4 A8 72 9B
    7A 47 31 78 F2 32 DA DF
    3F 0F 8E 22 67 8B A5 A4
    3E 04 1E 72 DA 1E 2C F8
    21 94 C3 07 20 7A 54 CB
    81 56 29 33 39 EA EC 69
    3F F6 6B FC D5 EF C6 5E
    95 E4 EC AF 54 53 0A BD
}
{
    F5 98 DA 90 1C 38 35 BC
    A5 60 77 90 37 DF DE 9F
    0C 51 DC 61 C0 B7 60 FC
    15 22 D7 B4 70 EE 63 F5
    BD C6 49 84 76 E8 60 49
    AD 86 E4 E2 1A F2 85 4A
    98 4C C9 05 42 7D 2F 17
    F6 6B 1F 41 C3 DA 6F 61
}
{
    5F 93 26 97 98 CF 02 13
    21 07 33 76 60 A8 D7 A1
    77 35 4C 02 12 EB 93 E5
    55 E7 C3 7A 08 AE F3 D8
    DC E0 12 17 01 1C D9 65
    C0 4D D2 C1 05 F2 E2 B6
    CA E5 E4 E6 BC AF 09 DF
    BE E3 E0 A6 A6 35 7C 37
}
{
    0E CF 58 1D 47 BA C9 23
    09 86 FA AB D7 0C 2F 5B
    80 E9 10 66 F0 EC 55 A8
    42 93 78 82 28 6D 2C A0
    07 BB 4E 97 3B 0B 09 1D
    52 16 7F F7 C4 00 9C 7A
    B4 AD 38 FF F1 DC EA CD
    B7 BE 81 EF 4A 45 29 52
}
{
    5A EC A8 AB E1 52 85 82
    B2 A3 07 B4 00 95 85 49
    8A 3D 46 7C A6 10 1C B0
    C5 12 6F 99 76 05 6E 9F
    FC 12 3C C2 0C 30 2B 2A
    73 7F 49 2C 75 D2 1F 01
    51 2C 90 CA 05 41 DF A5
    6E 95 0A 32 1D CB 28 D8
}
{
    73 2F BF 8F 1C B2 B8 32
    92 63 ED E2 78 58 FE 46
    F8 D3 35 4D 37 6B CD A0
    54 8E 7C E1 FA 9D D1 1F
    85 EB 66 1F E9 50 B5 43
    AA 63 5C A4 D3 F0 4E DE
    5B 32 D6 B6 56 E5 CE 1C
    44 D3 5C 4A 6C 56 CF F8
}
{
    D5 E9 38 73 5D 63 78 8C
    80 10 0A EF D1 86 48 D1
    8C F2 72 F6 9F 20 FF 24
    CF E2 89 5C 08 8A D0 8B
    01 04 DA 16 72 A4 EB 26
    FC 52 54 5C C7 D7 A0 1B
    26 6C F5 46 C4 03 C4 5B
    D1 29 EB 41 BD D9 20 0B
}
{
    65 A2 45 B4 93 52 EE 29
    7D 91 AF 8C 8B E0 05 28
    AC 6E 04 6D D8 3A C7 BD
    46 5A 98 81 6D D6 8F 3E
    00 E1 AE 8F 89 53 27 A7
    E9 A8 C9 32 65 98 37 9A
    29 C9 FC 91 EC 0C 6E EF
    08 F3 E2 B2 16 C1 10 08
}
{
    C9 56 54 B6 30 19 13 0A
    B4 5D D0 FB 49 41 B9 8A
    EB 3A F2 A1 23 91 3E CA
    2C E9 9B 3E 97 41 0A 7B
    F8 66 1C C7 FB AA 2B C1
    CF 2B 13 11 3B 1E D4 0A
    01 18 B8 8E 5F FF C3 54
    27 59 EA 00 7E D4 C5 8D
}
{
    1E B2 62 F3 8F A4 94 43
    1F 01 7D AD 44 C0 DF B6
    93 24 AC 03 2F 04 B6 57
    FC 91 A8 86 47 BB 74 76
    0F 24 E7 C9 56 51 4F 0C
    F0 02 99 0B 18 2C 16 42
    B9 B2 42 6E 96 A6 11 87
    E4 E0 12 F0 0E 21 7D 84
}
{
    3B 95 5A EE BF A5 15 1A
    C1 AB 8E 3F 5C C1 E3 76
    70 84 C8 42 A5 75 D3 62
    69 83 6E 97 35 3D 41 62
    2B 73 1D DD CD 5F 26 95
    50 A3 A5 B8 7B E1 E9 03
    26 34 0B 6E 0E 62 55 58
    15 D9 60 05 97 AC 6E F9
}
{
    68 28 9F 66 05 47 3B A0
    E4 F2 41 BA F7 47 7A 98
    85 42 6A 85 8F 19 EF 2A
    18 B0 D4 0E F8 E4 12 82
    ED 55 26 B5 19 79 9E 27
    0F 13 88 13 27 91 82 78
    75 57 11 07 1D 85 11 FE
    96 3E 3B 56 06 AA 37 16
}
{
    80 A3 37 87 54 26 12 C3
    8F 6B CD 7C D8 6C AB 46
    02 27 50 9B 1C BA D5 EC
    40 8A 91 41 3D 51 15 5A
    04 76 DA DB F3 A2 51 8E
    4A 6E 77 CC 34 66 22 E3
    47 A4 69 BF 8B AA 5F 04
    EB 2D 98 70 53 55 D0 63
}
{
    34 62 9B C6 D8 31 39 1C
    4C DF 8A F1 B4 B7 B6 B8
    E8 EE 17 CF 98 C7 0E 5D
    D5 86 CD 99 F1 4B 11 DF
    94 51 66 23 6A 95 71 E6
    D5 91 BB 83 EE 4D 16 4D
    46 F6 B9 D8 EF 86 FF 86
    5A 81 BF B9 1B 00 42 4B
}
{
    8B 7C C3 39 16 38 63 BB
    43 83 E5 42 B0 EF 0E 7C
    F3 6B 84 AD 93 2C DF 5A
    80 41 9E C9 AD 69 2E 7A
    7E 78 4D 2C 7C B3 79 6A
    18 B8 F8 00 03 5F 3A A0
    6C 82 41 00 61 11 20 A7
    BD EB 35 61 8C CB 81 B7
}
{
    4F 08 4E 49 39 DD 5A 7F
    5A 65 8F AD 58 A1 8A 15
    C2 5C 32 EC 1C 7F D5 C5
    C6 C3 E8 92 B3 97 1A EA
    AC 30 83 04 EF 17 B1 C4
    72 39 EA 4B B3 98 B3 FD
    6D 45 28 D8 DE 8E 76 8A
    E0 F1 A5 A5 C6 B5 C2 97
}
{
    48 F4 07 A1 AF 5B 80 09
    B2 05 17 42 E8 CF 5C D5
    65 66 69 E7 D7 22 EE 8E
    7B D2 02 06 08 49 44 21
    68 D8 FA CC 11 7C 01 2B
    FB 7B F4 49 D9 9B EF FF
    6A 34 AE A2 03 F1 D8 D3
    52 72 2B E5 01 4E C8 18
}
{
    A6 AA 82 CD 1E 42 6F 9A
    73 BF A3 9A 29 03 78 76
    11 46 55 B8 C2 2D 6D 3F
    F8 B6 38 AE 7D EA 6B 17
    84 3E 09 E5 2E B6 6F A1
    E4 75 E4 A8 A3 DE 42 9B
    7D 0F 4A 77 6F CB 8B DC
    9B 9F ED E7 D5 2E 81 5F
}
{
    58 17 02 7D 6B DD 00 C5
    DD 10 AC 59 3C D5 60 37
    22 70 77 5A 18 52 6D 7E
    6F 13 87 2A 2E 20 EA B6
    64 62 5B E7 16 8A C4 BD
    7C 9E 0C E7 FC 40 99 E0
    F4 84 42 E2 C7 67 19 1C
    6E 12 84 E9 B2 CC EA 8C
}
{
    08 E4 10 28 34 0A 45 C7
    4E 40 52 B3 A8 D6 38 9E
    22 E0 43 A1 AD AB 5E 28
    D9 76 19 45 0D 72 34 69
    B6 20 CA A5 19 B8 1C 14
    52 38 54 F6 19 FD 30 27
    E3 84 7B D0 32 76 E6 06
    04 A8 0D DB 4D E8 76 D6
}
{
    13 0B 84 20 53 7E B0 7D
    72 AB DA 07 C8 5A CB D8
    B9 A4 4F 16 32 1D D0 42
    21 45 F8 09 67 3D 30 F2
    B5 32 13 26 E2 BF F3 17
    EF 3F EF 98 3C 51 C4 F8
    AB 24 A3 25 D2 98 E3 4A
    FC E5 69 A8 25 55 77 4C
}
{
    AC 49 B8 44 AF AA 01 2E
    31 C4 74 CA 26 36 48 84
    4F D2 F6 30 79 92 C2 F7
    52 AC A0 2C 38 28 96 51
    75 79 4D EE E2 D2 EE 95
    C6 1C D2 84 F6 B5 A2 D7
    5E 2E F2 B2 9E E8 14 9E
    77 FB 81 44 7B 2F D0 4B
}
{
    B9 D7 CA 81 CC 60 BB 95
    78 E4 40 24 E5 A0 A0 BE
    80 F2 73 36 A6 A9 F4 E5
    3D F3 99 9C B1 91 28 0B
    09 0E 2A C2 D2 9C 5B AA
    D9 D7 14 15 BD C1 29 E6
    9A A2 66 7A F6 A7 FD 5E
    18 9F CC DC EE 81 73 40
}
{
    A7 55 E1 13 38 65 72 C7
    5C ED 61 D7 19 70 60 70
    B9 14 60 48 E4 2A 9F 8C
    D3 56 67 A0 88 B4 2F 08
    80 8A BD F7 7E 61 8A BD
    95 9A FC 75 73 79 CA 2C
    00 BC C1 A4 83 90 FA 2B
    FF 61 8B 1E 00 78 A6 13
}
{
    A7 3C 7D EB ED 32 6F 1C
    0D B0 79 5E E7 D6 E3 94
    68 94 B8 26 B1 F8 10 1C
    56 C8 23 BA 17 16 83 12
    E7 F5 3F C7 DB E5 2C 3E
    11 E6 98 52 C4 04 85 E2
    EF 18 24 77 86 2E A6 A3
    4E C1 36 E2 DF EE A6 F4
}
{
    6C B8 F9 D5 2C 56 D8 2C
    AC 28 F3 9E A1 59 3E 8B
    B2 50 62 93 AC 0D 68 37
    6A 17 09 B6 2A 46 DF 14
    A4 AE 64 B2 D8 FA B7 67
    33 A1 CE D2 D5 48 E3 F3
    C6 FC B4 9D 40 C3 D5 80
    8E 44 9C D8 3D 1C 2A A2
}
{
    68 3F A2 B2 36 9A 10 16
    2C 1C 1C 7B 24 BC 97 0E
    E6 7D A2 20 56 4F 32 20
    3F 62 56 96 C0 35 2A 0B
    9A D9 66 24 36 2D 95 2D
    84 46 3C 11 06 A2 DB A7
    A0 92 59 98 84 B3 5A 0B
    89 C8 F1 B6 A9 B5 A6 1E
}
{
    AA D9 AD 44 61 01 18 B7
    7D 50 8A EB 1B BC D1 C1
    B7 D0 17 13 97 FB 51 0A
    40 1B BC 0E C3 46 23 67
    0D 86 A2 DC 3C 8F 3A B5
    A2 04 4D F7 30 25 67 27
    54 5F 08 60 CE 21 A1 EA
    C7 17 DF C4 8F 5D 22 8E
}
{
    C4 25 78 DE 23 B4 C9 87
    D5 E1 AC 4D 68 9E D5 DE
    4B 04 17 F9 70 4B C6 BC
    E9 69 FA 13 47 15 85 D6
    2C 2C B1 21 2A 94 4F 39
    7F C9 CA 2C 37 47 C3 BE
    B6 94 EC 4C 5B E6 88 28
    DD A5 3E F4 3F AE C6 C0
}
{
    47 0F 00 84 1E E8 24 4E
    63 ED 2C 7E A3 0E 2E 41
    98 97 C1 97 46 2E CC CE
    CF 71 3B 42 A5 06 5F FF
    59 14 BC 9B 79 AF FE 8F
    6B 65 78 75 E7 89 AE 21
    3B D9 14 CD 35 BD 17 4D
    46 E9 D1 8B D8 43 77 3D
}
{
    34 FC 42 13 73 0F 47 A5
    E9 A3 58 0F 64 3E 12 94
    5C FC B3 1B F2 06 F6 AD
    45 0C E5 28 DA 3F A4 32
    E0 05 D6 B0 EC CE 10 DC
    A7 C5 99 5F 6A AC C5 15
    0E 1B 00 9E 19 75 1E 83
    09 F8 85 95 31 84 43 74
}
{
    FB 3C 1F 0F 56 A5 6F 8E
    31 6F DF 5D 85 3C 8C 87
    2C 39 63 5D 08 36 34 C3
    90 4F C3 AC 07 D1 B5 78
    E8 5F F0 E4 80 E9 2D 44
    AD E3 3B 62 E8 93 EE 32
    34 3E 79 DD F6 EF 29 2E
    89 B5 82 D3 12 50 23 14
}
{
    C7 C9 7F C6 5D D2 B9 E3
    D3 D6 07 D3 15 98 D3 F8
    42 61 E9 91 92 51 E9 C8
    E5 7B B5 F8 29 37 7D 5F
    73 EA BB ED 55 C6 C3 81
    18 0F 29 AD 02 E5 BE 79
    7F FE C7 E5 7B DE CB C5
    0A D3 D0 62 F0 99 3A B0
}
{
    A5 7A 49 CD BE 67 AE 7D
    9F 79 7B B5 CC 7E FC 2D
    F0 7F 4E 1B 15 95 5F 85
    DA E7 4B 76 E2 EC B8 5A
    FB 6C D9 EE ED 88 88 D5
    CA 3E C5 AB 65 D2 7A 7B
    19 E5 78 47 57 60 A0 45
    AC 3C 92 E1 3A 93 8E 77
}
{
    C7 14 3F CE 96 14 A1 7F
    D6 53 AE B1 40 72 6D C9
    C3 DB B1 DE 6C C5 81 B2
    72 68 97 EC 24 B7 A5 03
    59 AD 49 22 43 BE 66 D9
    ED D8 C9 33 B5 B8 0E 0B
    91 BB 61 EA 98 05 60 06
    51 69 76 FA E8 D9 9A 35
}
{
    65 BB 58 D0 7F 93 7E 2D
    3C 7E 65 38 5F 9C 54 73
    0B 70 41 05 CC DB 69 1F
    6E 14 6D 4E E8 F6 C0 86
    F4 95 11 03 51 10 A9 AD
    60 31 FD CE B9 43 E0 F9
    61 3B CB 27 6D D4 0F 06
    24 EF 0F 92 4F 80 97 83
}
{
    E5 40 27 7F 68 3B 11 86
    DD 3B 5B 3F 61 43 33 96
    58 1A 35 FE B1 20 02 BE
    8C 6A 62 31 FC 40 FF A7
    0F 08 08 1B C5 8B 2D 94
    F7 64 95 43 61 4A 43 5F
    AA 2D 62 11 0E 13 DA BC
    7B 86 62 9B 63 AF 9C 24
}
{
    41 85 00 87 8C 5F BC B5
    84 C4 32 F4 28 5E 05 E4
    9F 2E 3E 07 53 99 A0 DB
    FC F8 74 EB F8 C0 3D 02
    BF 16 BC 69 89 D1 61 C7
    7C A0 78 6B 05 05 3C 6C
    70 94 33 71 23 19 19 21
    28 83 5C F0 B6 60 59 5B
}
{
    88 90 90 DB B1 94 4B DC
    94 33 EE 5E F1 01 0C 7A
    4A 24 A8 E7 1E CE A8 E1
    2A 31 31 8C E4 9D CA B0
    AC A5 C3 80 23 34 AA B2
    CC 84 B1 4C 6B 93 21 FE
    58 6B F3 F8 76 F1 9C D4
    06 EB 11 27 FB 94 48 01
}
{
    53 B6 A2 89 10 AA 92 E2
    7E 53 6F B5 49 CF 9B 99
    18 79 10 60 89 8E 0B 9F
    E1 83 57 7F F4 3B 5E 9C
    76 89 C7 45 B3 2E 41 22
    69 83 7C 31 B8 9E 6C C1
    2B F7 6E 13 CA D3 66 B7
    4E CE 48 BB 85 FD 09 E9
}
{
    7C 09 20 80 C6 A8 0D 67
    24 09 D0 81 D3 D1 77 10
    6B CD 63 56 77 85 14 07
    19 49 09 50 AE 07 AE 8F
    CA AB BA AA B3 30 CF BC
    F7 37 44 82 C2 20 AF 2E
    AD EE B7 3D CB B3 5E D8
    23 34 4E 14 4E 7D 48 99
}
{
    9C CD E5 66 D2 40 05 09
    18 11 11 F3 2D DE 4C D6
    32 09 FE 59 A3 0C 11 45
    46 AD 27 76 D8 89 A4 1B
    AD 8F A1 BB 46 8C B2 F9
    D4 2C A9 92 8A 77 70 FE
    F8 E8 BA 4D 0C 81 2D 9A
    1E 75 C3 D8 D2 CC D7 5A
}
{
    6E 29 3B F5 D0 3F E4 39
    77 CF E3 F5 7C CD B3 AE
    28 2A 85 45 5D CA 33 F3
    7F 4B 74 F8 39 8C C6 12
    43 3D 75 5C BE C4 12 F8
    F8 2A 3B D3 BC 4A 27 8F
    7E CD 0D FA 9B BD C4 0B
    E7 A7 87 C8 F1 59 B2 DF
}
{
    C5 65 46 FB 21 78 45 6F
    33 61 64 C1 8B 90 DE FF
    C8 3A E2 B5 A3 AC A7 7B
    68 84 D3 6D 2C 1D B3 95
    01 B3 E6 5E 36 C7 58 C6
    6E 31 88 45 1F DB 35 15
    EE 16 2C 00 1F 06 C3 E8
    CB 57 3A DF 30 F7 A1 01
}
{
    6F 82 F8 9F 29 9E BC A2
    FE 01 4B 59 BF FE 1A A8
    4E 88 B1 91 5F E2 56 AF
    B6 46 FD 84 48 AF 2B 88
    91 A7 FA B3 7A 4E A6 F9
    A5 0E 6C 31 70 39 D8 CF
    87 8F 4C 8E 1A 0D D4 64
    F0 B4 D6 FF 1C 7E A8 53
}
{
    2B 85 99 FF 9C 3D 61 98
    63 7A D5 1E 57 D1 99 8B
    0D 75 31 3F E2 DD 61 A5
    33 C9 64 A6 DD 96 07 C6
    F7 23 E9 45 2C E4 6E 01
    4B 1C 1D 6D E7 7B A5 B8
    8C 91 4D 1C 59 7B F1 EA
    E1 34 74 B4 29 0E 89 B2
}
{
    08 BF 34 6D 38 E1 DF 06
    C8 26 0E DB 1D A7 55 79
    27 59 48 D5 C0 A0 AA 9E
    D2 88 6F 88 56 DE 54 17
    A1 56 99 87 58 F5 B1 7E
    52 F1 01 CA 95 7A 71 13
    74 73 DF D1 8D 7D 20 9C
    4C 10 D9 23 3C 93 69 1D
}
{
    6D F2 15 6D 77 31 14 D3
    10 B6 3D B9 EE 53 50 D7
    7E 6B CF 25 B0 5F CD 91
    0F 9B 31 BC 42 BB 13 FE
    82 25 EB CB 2A 23 A6 22
    80 77 7B 6B F7 4E 2C D0
    91 7C 76 40 B4 3D EF E4
    68 CD 1E 18 C9 43 C6 6A
}
{
    7C 70 38 BC 13 A9 11 51
    82 8A 5B A8 2B 4A 96 04
    0F 25 8A 4D FB 1B 13 73
    F0 D3 59 16 8A FB 05 17
    A2 0B 28 A1 2D 36 44 04
    6B E6 6B 8D 08 D8 AE 7F
    6A 92 3E A1 C0 01 87 C6
    D1 1D C5 02 BA C7 13 05
}
{
    BC D1 B3 0D 80 8F B7 39
    B9 87 CB F1 54 BE A0 0D
    A9 D4 03 80 B8 61 D4 C1
    D6 37 71 22 DA DD 61 C0
    E5 90 18 B7 19 41 CF B6
    2E 00 DC D7 0A EB 9A BF
    04 73 E8 0F 0A 7E CA 6B
    6D EA 24 6A B2 29 DD 2B
}
{
    7E D4 46 8D 96 85 30 FE
    7A B2 C3 35 40 B2 6D 8C
    3B D3 ED 44 B3 4F BE 8C
    2A 9D 7F 80 5B 5A DA 0E
    A2 52 EE AD E4 FC E9 7F
    89 72 8A D8 5B C8 BB 24
    30 B1 BE F2 CD DD 32 C8
    44 6E 59 B8 E8 BA 3C 67
}
{
    6D 30 B7 C6 CE 8A 32 36
    C0 CA 2F 8D 72 8B 10 88
    CA 06 98 3A 80 43 E6 21
    D5 DC F0 C5 37 D1 3B 08
    79 1E DE B0 1A 3C F0 94
    3E C1 C8 90 AB 6E 29 B1
    46 A2 36 CD 46 BC B9 D9
    3B F5 16 FB 67 C6 3F E5
}
{
    97 FE 03 CE F3 14 38 50
    89 11 BD ED 97 59 80 A6
    60 29 30 5D C5 E3 FA 8A
    D1 B4 FB 22 FC DF 5A 19
    A7 33 32 03 27 D8 F7 1C
    CF 49 6C B3 A4 4A 77 AF
    56 E3 DD E7 3D 3A 5F 17
    68 96 CC 57 C9 A5 AD 99
}
{
    78 5A 9D 0F BD 21 13 6D
    BC E8 FA 7E AF D6 3C 9D
    AD 22 00 52 97 84 16 B3
    1D 97 53 EA A1 49 09 78
    47 ED 9B 30 A6 5C 70 50
    7E FF 01 87 91 49 ED 5C
    F0 47 1D 37 79 8E DC 05
    AB D5 6A D4 A2 CC CB 1D
}
{
    AD 40 8D 2A BD DF D3 7B
    3B F3 47 94 C1 A3 37 1D
    92 8E D7 FC 8D 96 62 25
    33 35 84 C5 66 58 17 83
    2A 37 C0 7F 0D C7 CB 5A
    A8 74 CD 7D 20 FE 8F AB
    8E AB CB 9B 33 D2 E0 84
    1F 6E 20 09 60 89 9D 95
}
{
    97 66 8F 74 5B 60 32 FC
    81 5D 95 79 32 27 69 DC
    CD 95 01 A5 08 00 29 B8
    AE 82 6B EF B6 74 23 31
    BD 9F 76 EF EB 3E 2B 8E
    81 A9 78 6B 28 2F 50 68
    A3 A2 42 46 97 A7 7C 41
    87 6B 7E 75 3F 4C 77 67
}
{
    26 BB 98 5F 47 E7 FE E0
    CF D2 52 D4 EF 96 BE D4
    2B 9C 37 0C 1C 6A 3E 8C
    9E B0 4E F7 F7 81 8B 83
    3A 0D 1F 04 3E BA FB 91
    1D C7 79 E0 27 40 A0 2A
    44 D3 A1 EA 45 ED 4A D5
    5E 68 6C 92 7C AF E9 7E
}
{
    5B FE 2B 1D CF 7F E9 B9
    50 88 AC ED B5 75 C1 90
    16 C7 43 B2 E7 63 BF 58
    51 AC 40 7C 9E DA 43 71
    5E DF A4 8B 48 25 49 2C
    51 79 59 3F FF 21 35 1B
    76 E8 B7 E0 34 E4 C5 3C
    79 F6 1F 29 C4 79 BD 08
}
{
    C7 65 09 EF 72 F4 A6 F9
    C9 C4 06 18 ED 52 B2 08
    4F 83 50 22 32 E0 AC 8B
    DA F3 26 43 68 E4 D0 18
    0F 68 54 C4 AB F4 F6 50
    9C 79 CA AF C4 4C F3 19
    4A FC 57 BD 07 7B D7 B3
    C9 BD A3 D4 B8 77 58 16
}
{
    D6 6F 2B EA B9 90 E3 54
    CC B9 10 E4 E9 C7 AC 61
    8C 7B 63 EF 29 2A 96 B5
    52 34 1D E7 8D C4 6D 3E
    C8 CF AB C6 99 B5 0A F4
    1F DA 39 CF 1B 01 73 66
    09 23 51 0A D6 7F AE DE
    F5 20 7C FF E8 64 1D 20
}
{
    7D 8F 06 72 99 2B 79 BE
    3A 36 4D 8E 59 04 F4 AB
    71 3B BC 8A B0 1B 4F 30
    9A D8 CC F2 23 CE 10 34
    A8 60 DC B0 B0 05 50 61
    2C C2 FA 17 F2 96 9E 18
    F2 2E 14 27 D2 54 B4 A8
    2B 3A 03 A3 EB 39 4A DF
}
{
    A5 6D 67 25 BF B3 DE 47
    C1 41 4A DF 25 FC 8F 0F
    C9 84 6F 69 87 72 2B C0
    63 66 D5 CA 4E 89 72 29
    25 EB BC 88 14 18 84 40
    75 39 7A 0C A8 98 42 C7
    B9 E9 E0 7E 1D 9D 18 3E
    BE B3 9E 12 0B 48 3B F7
}
{
    AF 5E 03 D7 FE 60 C6 7E
    10 31 33 44 43 4E 79 48
    5A 03 A7 58 D6 DC E9 85
    57 47 45 76 3C 1C 5C 77
    D4 FB 3E 6F B1 22 30 36
    83 70 99 3B F9 0F EE D0
    C5 D1 60 75 24 56 2D 7C
    09 C0 C2 10 ED 39 3D 7C
}
{
    7A 20 54 0C C0 7B F7 2B
    58 24 21 FC 34 2E 82 F5
    21 34 B6 98 41 EC 28 ED
    18 9E 2E A6 A2 9D D2 F8
    2A 64 03 52 D2 22 B5 2F
    29 11 DC 72 A7 DA B3 1C
    AA DD 80 C6 11 8F 13 C5
    6B 2A 1E 43 73 BE 0E A3
}
{
    48 6F 02 C6 3E 54 67 EA
    1F DD E7 E8 2B FA CC 2C
    1B A5 D6 36 D9 F3 D0 8B
    21 0D A3 F3 72 F7 06 EC
    21 8C C1 7F F6 0A EF 70
    3B BE 0C 15 C3 8A E5 5D
    28 6A 68 4F 86 4C 78 21
    1C CA B4 17 8C 92 AD BA
}
{
    1C 7A 5C 1D ED CD 04 A9
    21 78 8F 7E B2 33 61 CA
    19 53 B0 4B 9C 7A EC 35
    D6 5E A3 E4 99 6D B2 6F
    28 12 78 EA 4A E6 66 AD
    81 02 7D 98 AF 57 26 2C
    DB FA 4C 08 5F 42 10 56
    8C 7E 15 EE C7 80 51 14
}
{
    9C E3 FA 9A 86 0B DB D5
    37 8F D6 D7 B8 B6 71 C6
    CB 76 92 91 0C E8 F9 B6
    CB 41 22 CB CB E6 AC 06
    CA 04 22 CE F1 22 59 35
    05 3B 7D 19 3A 81 B9 E9
    72 EB 85 A1 D3 07 4F 14
    CB B5 EC 9F 05 73 89 2D
}
{
    A9 11 87 BE 5C 37 1C 42
    65 C1 74 FD 46 53 B8 AB
    70 85 51 F8 3D 1F EE 1C
    C1 47 95 81 BC 00 6D 6F
    B7 8F CC 9A 5D EE 1D B3
    66 6F 50 8F 97 80 A3 75
    93 EB CC CF 5F BE D3 96
    67 DC 63 61 E9 21 F7 79
}
{
    46 25 76 7D 7B 1D 3D 3E
    D2 FB C6 74 AF 14 E0 24
    41 52 F2 A4 02 1F CF 33
    11 50 5D 89 BD 81 E2 F9
    F9 A5 00 C3 B1 99 91 4D
    B4 95 00 B3 C9 8D 03 EA
    93 28 67 51 A6 86 A3 B8
    75 DA AB 0C CD 63 B4 4F
}
{
    43 DF DF E1 B0 14 FE D3
    A2 AC AB B7 F3 E9 A1 82
    F2 AA 18 01 9D 27 E3 E6
    CD CF 31 A1 5B 42 8E 91
    E7 B0 8C F5 E5 C3 76 FC
    E2 D8 A2 8F F8 5A B0 A0
    A1 65 6E DB 4A 0A 91 53
    26 20 09 6D 9A 5A 65 2D
}
{
    27 9E 32 02 BE 39 89 BA
    31 12 77 25 85 17 74 87
    E4 FE 3E E3 EA B4 9C 2F
    7F A7 FE 87 CF E7 B8 0D
    3E 03 55 ED FF 6D 03 1E
    6C 96 C7 95 DB 1C 6F 04
    18 80 EC 38 24 DE FA CF
    92 63 82 0A 8E 73 27 DE
}
{
    EA 2D 06 6A C2 29 D4 D4
    B6 16 A8 BE DE C7 34 32
    52 24 E4 B4 E5 8F 1A E6
    DA D7 E4 0C 2D A2 91 96
    C3 B1 EA 95 71 DA CC 81
    E8 73 28 CA A0 21 1E 09
    02 7B 05 24 AA 3F 4A 84
    99 17 B3 58 67 47 EB BB
}
{
    49 F0 14 F5 C6 18 22 C8
    99 AB 5C AE 51 BE 40 44
    A4 49 5E 77 7D EB 7D A9
    B6 D8 49 0E FB B8 75 30
    AD F2 93 DA F0 79 F9 4C
    33 B7 04 4E F6 2E 2E 5B
    B3 EB 11 E1 73 04 F8 45
    3E E6 CE 24 F0 33 DD B0
}
{
    92 33 49 03 44 E5 B0 DC
    59 12 67 1B 7A E5 4C EE
    77 30 DB E1 F4 C7 D9 2A
    4D 3E 3A AB 50 57 17 08
    DB 51 DC F9 C2 94 45 91
    DB 65 1D B3 2D 22 93 5B
    86 94 49 69 BE 77 D5 B5
    FE AE 6C 38 40 A8 DB 26
}
{
    B6 E7 5E 6F 4C 7F 45 3B
    74 65 D2 5B 5A C8 C7 19
    69 02 EA A9 53 87 52 28
    C8 63 4E 16 E2 AE 1F 38
    BC 32 75 30 43 35 F5 98
    9E CC C1 E3 41 67 D4 E6
    8D 77 19 96 8F BA 8E 2F
    E6 79 47 C3 5C 48 E8 06
}
{
    CC 14 CA 66 5A F1 48 3E
    FB C3 AF 80 08 0E 65 0D
    50 46 A3 93 2F 4F 51 F3
    FE 90 A0 70 5E C2 51 04
    AD F0 78 39 26 5D C5 1D
    43 40 14 11 24 6E 47 4F
    0D 5E 56 37 AF 94 76 72
    83 D5 3E 06 17 E9 81 F4
}
{
    23 0A 1C 85 7C B2 E7 85
    2E 41 B6 47 E9 0E 45 85
    D2 D8 81 E1 73 4D C3 89
    55 35 6E 8D D7 BF F3 90
    53 09 2C 6B 38 E2 36 E1
    89 95 25 64 70 73 DD DF
    68 95 D6 42 06 32 5E 76
    47 F2 75 56 7B 25 59 09
}
{
    CB B6 53 21 AC 43 6E 2F
    FD AB 29 36 35 9C E4 90
    23 F7 DE E7 61 4E F2 8D
    17 3C 3D 27 C5 D1 BF FA
    51 55 3D 43 3F 8E E3 C9
    E4 9C 05 A2 B8 83 CC E9
    54 C9 A8 09 3B 80 61 2A
    0C DD 47 32 E0 41 F9 95
}
{
    3E 7E 57 00 74 33 72 75
    EF B5 13 15 58 80 34 C3
    CF 0D DD CA 20 B4 61 2E
    0B D5 B8 81 E7 E5 47 6D
    31 9C E4 FE 9F 19 18 6E
    4C 08 26 F4 4F 13 1E B0
    48 E6 5B E2 42 B1 17 2C
    63 BA DB 12 3A B0 CB E8
}
{
    D3 2E 9E C0 2D 38 D4 E1
    B8 24 9D F8 DC B0 0C 5B
    9C 68 EB 89 22 67 2E 35
    05 39 3B 6A 21 0B A5 6F
    94 96 E5 EE 04 90 EF 38
    7C 3C DE C0 61 F0 6B C0
    38 2D 93 04 CA FB B8 E0
    CD 33 D5 70 29 E6 2D F2
}
{
    8C 15 12 46 60 89 F0 5B
    37 75 C2 62 B6 2D 22 B8
    38 54 A8 32 18 13 0B 4E
    C9 1B 3C CB D2 93 D2 A5
    43 02 CE CA AB 9B 10 0C
    68 D1 E6 DD C8 F0 7C DD
    BD FE 6F DA AA F0 99 CC
    09 D6 B7 25 87 9C 63 69
}
{
    91 A7 F6 1C 97 C2 91 1E
    4C 81 2E F7 1D 78 0A D8
    FA 78 87 94 56 1D 08 30
    3F D1 C1 CB 60 8A 46 A1
    25 63 08 6E C5 B3 9D 47
    1A ED 94 FB 0F 6C 67 8A
    43 B8 79 29 32 F9 02 8D
    77 2A 22 76 8E A2 3A 9B
}
{
    4F 6B B2 22 A3 95 E8 B1
    8F 6B A1 55 47 7A ED 3F
    07 29 AC 9E 83 E1 6D 31
    A2 A8 BC 65 54 22 B8 37
    C8 91 C6 19 9E 6F 0D 75
    79 9E 3B 69 15 25 C5 81
    95 35 17 F2 52 C4 B9 E3
    A2 7A 28 FB AF 49 64 4C
}
{
    5D 06 C0 7E 7A 64 6C 41
    3A 50 1C 3F 4B B2 FC 38
    12 7D E7 50 9B 70 77 C4
    D9 B5 61 32 01 C1 AA 02
    FD 5F 79 D2 74 59 15 DD
    57 FB CB 4C E0 86 95 F6
    EF C0 CB 3D 2D 33 0E 19
    B4 B0 E6 00 4E A6 47 1E
}
{
    B9 67 56 E5 79 09 96 8F
    14 B7 96 A5 D3 0F 4C 9D
    67 14 72 CF 82 C8 CF B2
    CA CA 7A C7 A4 4C A0 A1
    4C 98 42 D0 0C 82 E3 37
    50 2C 94 D5 96 0A CA 4C
    49 2E A7 B0 DF 91 9D DF
    1A AD A2 A2 75 BB 10 D4
}
{
    FF 0A 01 5E 98 DB 9C 99
    F0 39 77 71 0A AC 3E 65
    8C 0D 89 6F 6D 71 D6 18
    BA 79 DC 6C F7 2A C7 5B
    7C 03 8E B6 86 2D ED E4
    54 3E 14 54 13 A6 36 8D
    69 F5 72 2C 82 7B A3 EF
    25 B6 AE 64 40 D3 92 76
}
{
    5B 21 C5 FD 88 68 36 76
    12 47 4F A2 E7 0E 9C FA
    22 01 FF EE E8 FA FA B5
    79 7A D5 8F EF A1 7C 9B
    5B 10 7D A4 A3 DB 63 20
    BA AF 2C 86 17 D5 A5 1D
    F9 14 AE 88 DA 38 67 C2
    D4 1F 0C C1 4F A6 79 28
}
